data_1B_2F_Ch
_audit_creation_date              2024-08-12
_audit_creation_method            'tobacco_3.0'
_symmetry_space_group_name_H-M    'P1'
_symmetry_Int_Tables_number       1
_symmetry_cell_setting            triclinic
loop_
_symmetry_equiv_pos_as_xyz
  x,y,z
_cell_length_a                    21.896381015829114
_cell_length_b                    21.896293591906467
_cell_length_c                    21.896074394319214
_cell_angle_alpha                 89.99975537008466
_cell_angle_beta                  89.99975536834394
_cell_angle_gamma                 90.00000000000526
loop_
_atom_site_label
_atom_site_type_symbol
_atom_site_fract_x
_atom_site_fract_y
_atom_site_fract_z
O1         O   -0.0507803959    0.0886096997    0.5000002101
O2         O   -0.0507783288   -0.0886101462    0.5000019091
O3         O   -0.0507761937   -0.0000078276    0.5886137429
O4         O   -0.0507825418    0.0000009207    0.4113819192
O5         O    0.0507761829    0.0000013672    0.4113798001
O6         O    0.0507823649   -0.0000009251    0.5886051645
O7         O    0.0507803959   -0.0886096997    0.4999997899
O8         O    0.0507783288    0.0886101462    0.4999980909
Cu9       Cu   -0.0600472010   -0.0000050913    0.5000020299
Cu10      Cu    0.0600472010    0.0000050913    0.4999979701
C11        C    0.0000000000    0.1147404523    0.4999999990
C12        C   -0.0000000000   -0.1147404523    0.5000000010
C13        C    0.0000000000   -0.0000000010    0.6147376039
C14        C   -0.0000000000    0.0000000010    0.3852623961
O15        O   -0.0507803893    0.4113903092    0.5000002258
O16        O   -0.0507783221    0.5886101551    0.4999985268
O17        O   -0.0507761871    0.5000078365    0.4113866930
O18        O   -0.0507825351    0.4999990882    0.5886185167
O19        O    0.0507761895    0.4999986417    0.5886197686
O20        O    0.0507823715    0.5000009340    0.4113944041
O21        O    0.0507804025    0.5886097087    0.4999997787
O22        O    0.0507783354    0.4113898627    0.5000014777
Cu23      Cu   -0.0600471944    0.5000051002    0.4999984851
Cu24      Cu    0.0600472076    0.4999949177    0.5000015194
C25        C    0.0000000066    0.3852595566    0.5000000032
C26        C    0.0000000066    0.6147404612    0.5000000013
C27        C    0.0000000066    0.5000000099    0.3852623984
C28        C    0.0000000066    0.5000000079    0.6147376062
O29        O    0.4492196125    1.0886096953    0.5000002111
O30        O    0.4492216796    0.9113898494    0.5000019101
O31        O    0.4492238147    0.9999921680    0.5886137439
O32        O    0.4492174666    1.0000009163    0.4113819202
O33        O    0.5507761913    1.0000013628    0.4113798011
O34        O    0.5507823733    0.9999990705    0.5886051655
O35        O    0.5507804043    0.9113902959    0.4999997909
O36        O    0.5507783371    1.0886101418    0.4999980919
Cu37      Cu    0.4399528073    0.9999949043    0.5000020309
Cu38      Cu    0.5600472094    1.0000050869    0.4999979711
C39        C    0.5000000084    1.1147404479    0.5000000000
C40        C    0.5000000084    0.8852595433    0.5000000020
C41        C    0.5000000084    0.9999999946    0.6147376049
C42        C    0.5000000084    0.9999999966    0.3852623971
O43        O    0.4492196258    0.4113902958    0.5000002209
O44        O    0.4492216929    0.5886101417    0.4999985219
O45        O    0.4492238280    0.5000078231    0.4113866880
O46        O    0.4492174799    0.4999990748    0.5886185117
O47        O    0.5507762046    0.4999986283    0.5886197637
O48        O    0.5507823866    0.5000009206    0.4113943992
O49        O    0.5507804176    0.5886096952    0.4999997738
O50        O    0.5507783504    0.4113898493    0.5000014728
Cu51      Cu    0.4399528207    0.5000050868    0.4999984802
Cu52      Cu    0.5600472227    0.4999949042    0.5000015145
C53        C    0.5000000217    0.3852595432    0.4999999983
C54        C    0.5000000217    0.6147404478    0.4999999963
C55        C    0.5000000217    0.4999999965    0.3852623934
C56        C    0.5000000217    0.4999999945    0.6147376012
O57        O    0.9113906303    1.0507805928   -0.0000002067
O58        O    1.0886097686    1.0507785256   -0.0000019057
O59        O    1.0000078038    1.0507763905   -0.0886137395
O60        O    0.9999990555    1.0507827386    0.0886180842
O61        O    0.9999986090    0.9492236084    0.0886202033
O62        O    1.0000009013    0.9492174264   -0.0886051611
O63        O    1.0886093222    0.9492193954    0.0000002135
O64        O    0.9113901838    0.9492214626    0.0000019124
Cu65      Cu    1.0000050674    1.0600474349   -0.0000020265
Cu66      Cu    0.9999948850    0.9399525533    0.0000020333
C67        C    0.8852599820    0.9999999941    0.0000000044
C68        C    1.1147399704    0.9999999941    0.0000000024
C69        C    0.9999999772    0.9999999941   -0.1147376005
C70        C    0.9999999752    0.9999999941    0.1147376073
O71        O   -0.0886093460    0.5507805966   -0.0000002051
O72        O    0.0886097924    0.5507785295   -0.0000019040
O73        O    0.0000078276    0.5507763944   -0.0886137379
O74        O   -0.0000009207    0.5507827425    0.0886180858
O75        O   -0.0000013672    0.4492236123    0.0886202050
O76        O    0.0000009251    0.4492174303   -0.0886051594
O77        O    0.0886093460    0.4492193993    0.0000002151
O78        O   -0.0886097924    0.4492214665    0.0000019141
Cu79      Cu    0.0000050912    0.5600474388   -0.0000020249
Cu80      Cu   -0.0000050912    0.4399525572    0.0000020350
C81        C   -0.1147399942    0.4999999980    0.0000000060
C82        C    0.1147399942    0.4999999980    0.0000000040
C83        C    0.0000000010    0.4999999980   -0.1147375989
C84        C   -0.0000000010    0.4999999980    0.1147376089
O85        O    0.5886093115    1.0507805941   -0.0000002183
O86        O    0.4113901732    1.0507785269    0.0000014806
O87        O    0.4999921380    1.0507763918    0.0886133145
O88        O    0.5000008863    1.0507827399   -0.0886185092
O89        O    0.5000013328    0.9492236098   -0.0886197611
O90        O    0.4999990405    0.9492174277    0.0886056033
O91        O    0.4113906196    0.9492193968    0.0000002287
O92        O    0.5886097580    0.9492214639   -0.0000014702
Cu93      Cu    0.4999948744    1.0600474362    0.0000015223
Cu94      Cu    0.5000050568    0.9399525546   -0.0000015120
C95        C    0.6147399598    0.9999999954    0.0000000042
C96        C    0.3852599714    0.9999999954    0.0000000062
C97        C    0.4999999646    0.9999999954    0.1147376091
C98        C    0.4999999666    0.9999999954   -0.1147375987
O99        O    0.4113906555    0.5507805775    0.9999997867
O100       O    0.5886097938    0.5507785103    0.9999980877
O101       O    0.5000078290    0.5507763753    0.9113862539
O102       O    0.4999990807    0.5507827234    1.0886180776
O103       O    0.4999986342    0.4492235932    1.0886201967
O104       O    0.5000009265    0.4492174112    0.9113948323
O105       O    0.5886093474    0.4492193802    1.0000002069
O106       O    0.4113902090    0.4492214474    1.0000019058
Cu107     Cu    0.5000050927    0.5600474196    0.9999979669
Cu108     Cu    0.4999949102    0.4399525381    1.0000020267
C109       C    0.3852600073    0.4999999789    0.9999999978
C110       C    0.6147399956    0.4999999789    0.9999999958
C111       C    0.5000000024    0.4999999789    0.8852623929
C112       C    0.5000000004    0.4999999789    1.1147376007
C263       C   -0.2180245616    0.4580814748    0.0355369355
C264       C   -0.1850712504    0.4999999930    0.0000000034
C265       C   -0.2186423889    0.5416966138   -0.0353428118
C266       C   -0.2819762966    0.5419234580   -0.0355293093
C267       C   -0.3149287482    0.4999999838   -0.0000000015
C268       C   -0.2813576096    0.4583033630    0.0353428137
F269       F   -0.3098079228    0.4168176712    0.0705152001
H270       H   -0.1942330999    0.4249983294    0.0635762414
H271       H   -0.3057668987    0.5750016475   -0.0635762395
F272       F   -0.1901920758    0.5831823056   -0.0705151983
C253       C    0.2819753830    0.5252551532    0.0488079023
C254       C    0.3149287496    0.4999999838   -0.0000000006
C255       C    0.2813576662    0.4748843603   -0.0485481965
C256       C    0.2180237588    0.4747533635   -0.0488110247
C257       C    0.1850712518    0.4999999930    0.0000000024
C258       C    0.2186423353    0.5251156165    0.0485481983
F259       F    0.1901919673    0.5501123428    0.0968526735
H260       H    0.3057668011    0.5451800141    0.0873266840
H261       H    0.1942332004    0.4548199627   -0.0873266822
F262       F    0.3098080341    0.4498876341   -0.0968526717
C243       C    0.7819754722    0.9488926787    0.0202004215
C244       C    0.8149287198    0.9999999944    0.0000000043
C245       C    0.7813575180    1.0508348492   -0.0200877941
C246       C    0.7180236100    1.0511095570   -0.0201916012
C247       C    0.6850712220    0.9999999951    0.0000000043
C248       C    0.7186424238    0.9491651403    0.0200878027
F249       F    0.6901921736    0.8985847624    0.0400819037
H250       H    0.8057669841    0.9085598545    0.0361361505
H251       H    0.6942329577    1.0914401350   -0.0361361419
F252       F    0.8098077682    1.1014152271   -0.0400818951
C233       C    1.2819756556    0.9498954341   -0.0225727916
C234       C    1.3149287198    0.9999999951    0.0000000052
C235       C    1.2813573355    1.0498339069    0.0224558958
C236       C    1.2180234265    1.0500998017    0.0225805523
C237       C    1.1850712220    0.9999999944    0.0000000034
C238       C    1.2186426063    0.9501660826   -0.0224558872
F239       F    1.1901925376    0.9005767162   -0.0447945840
H240       H    1.3057673123    0.9103582788   -0.0403909636
H241       H    1.1942326295    1.0896417107    0.0403909722
F242       F    1.3098074042    1.0994232733    0.0447945926
C223       C    0.5409100678    0.5366926553    0.2819756957
C224       C    0.5000000162    0.4999999919    0.3149296552
C225       C    0.4593124650    0.4635007368    0.2813582324
C226       C    0.4590968333    0.4633013727    0.2180234388
C227       C    0.5000000060    0.4999999834    0.1850703389
C228       C    0.5406875571    0.5364992385    0.2186417617
F229       F    0.5811775613    0.5728127102    0.1901908653
H230       H    0.5731900451    0.5656524297    0.3057673431
H231       H    0.4268099770    0.4343475456    0.1942326510
F232       F    0.4188224608    0.4271872651    0.3098091288
C213       C    0.5549383598    0.5013233152    0.7819757964
C214       C    0.5000000074    0.4999999829    0.8149296552
C215       C    0.4453564659    0.4986791722    0.7813581322
C216       C    0.4450630312    0.4986676680    0.7180233381
C217       C    0.5000000167    0.4999999904    0.6850703389
C218       C    0.5546435583    0.5013208011    0.7186418619
F219       F    0.6090162364    0.5026286855    0.6901910651
H220       H    0.5982922081    0.5023731998    0.8057675233
H221       H    0.4017078160    0.4976267736    0.6942324708
F222       F    0.3909837877    0.4973712878    0.8098089290
C203       C    0.4767992012    1.0498168269    0.2819759285
C204       C    0.4999999970    0.9999999963    0.3149296612
C205       C    0.5230804840    0.9504523231    0.2813580128
C206       C    0.5232084634    0.9501880158    0.2180232180
C207       C    0.4999999760    0.9999999957    0.1850703450
C208       C    0.4769194890    1.0495476689    0.2186419934
F209       F    0.4539592509    1.0988522887    0.1901913215
H210       H    0.4584854876    1.0891268595    0.3057677550
H211       H    0.5415144854    0.9108731325    0.1942322512
F212       F    0.5460407220    0.9011477033    0.3098086847
C193       C    0.5535799854    0.9877869270    0.7180237992
C194       C    0.4999999975    0.9999999948    0.6850703450
C195       C    0.4467084269    1.0121520181    0.7186422703
C196       C    0.4464231154    1.0122216023    0.7819770665
C197       C    0.4999999774    0.9999999952    0.8149296612
C198       C    0.5532915480    0.9878479720    0.7813577359
F199       F    0.6063202112    0.9757624418    0.8098081323
H200       H    0.5958607980    0.9781436646    0.6942317531
H201       H    0.4041391770    1.0218563254    0.8057682531
F202       F    0.3936797638    1.0242375482    0.6901918739
C183       C    0.5181270133    0.7819759345    0.4481206323
C184       C    0.5000000118    0.8149290037    0.5000000005
C185       C    0.4819745746    0.7813573595    0.5516025918
C186       C    0.4818819116    0.7180231970    0.5518812558
C187       C    0.5000000182    0.6850709874    0.4999999978
C188       C    0.5180254554    0.7186426316    0.4483974065
F189       F    0.5359675166    0.6901925746    0.3970528576
H190       H    0.5324264484    0.8057677860    0.4071787639
H191       H    0.4675735816    0.6942322051    0.5928212344
F192       F    0.4640325135    0.8098074165    0.6029471408
C173       C    0.4975200895    1.2180240462    0.5548990798
C174       C    0.5000000118    1.1850709874    0.4999999996
C175       C    0.5024712123    1.2186426420    0.4453956107
C176       C    0.5024888999    1.2819768045    0.4451024743
C177       C    0.5000000182    1.3149290037    0.4999999988
C178       C    0.4975288178    1.2813573491    0.5546043876
F179       F    0.4950762513    1.3098073958    0.6089382368
H180       H    0.4955574935    1.1942321864    0.5982218232
H181       H    0.5044425366    1.3057678047    0.4017781752
F182       F    0.5049237788    1.1901925953    0.3910617615
C163       C    0.0529297169    0.4852209462    0.2180238044
C164       C    0.0000000010    0.5000000011    0.1850703455
C165       C   -0.0526445596    0.5147041956    0.2186422663
C166       C   -0.0529261778    0.5147874405    0.2819770625
C167       C    0.0000000046    0.5000000068    0.3149296618
C168       C    0.0526445653    0.4852958123    0.2813577410
F169       F    0.1050297367    0.4706706962    0.3098081419
H170       H    0.0946971041    0.4735528280    0.1942317618
H171       H   -0.0946970985    0.5264471799    0.3057682454
F172       F   -0.1050297311    0.5293293117    0.1901918654
C153       C   -0.0505275781    0.5216088129    0.7180240913
C154       C    0.0000000052    0.5000000053    0.6850703455
C155       C    0.0502547495    0.4785028944    0.7186419809
C156       C    0.0505229814    0.4783833513    0.7819767757
C157       C    0.0000000025    0.5000000006    0.8149296618
C158       C   -0.0502547419    0.5214971115    0.7813580264
F159       F   -0.1002627426    0.5428817318    0.8098087113
H160       H   -0.0903986541    0.5386663092    0.6942322752
H161       H    0.0903986617    0.4613336967    0.8057677321
F162       F    0.1002627502    0.4571182741    0.6901912960
C143       C    0.0429728119   -0.0342537472    0.2180239259
C144       C   -0.0000000183   -0.0000000041    0.1850703436
C145       C   -0.0427394752    0.0340735827    0.2186421416
C146       C   -0.0429663150    0.0342600793    0.2819769371
C147       C   -0.0000000064   -0.0000000008    0.3149296598
C148       C    0.0427394505   -0.0340735876    0.2813578618
F149       F    0.0852709107   -0.0679731848    0.3098083849
H150       H    0.0768808479   -0.0612890831    0.1942319807
H151       H   -0.0768808727    0.0612890782    0.3057680226
F152       F   -0.0852709355    0.0679731799    0.1901916185
C133       C   -0.0547991678   -0.0041263065    0.7819762841
C134       C   -0.0000000169   -0.0000000046    0.8149296598
C135       C    0.0545048467    0.0041087336    0.7813576563
C136       C    0.0547973210    0.0041352082    0.7180228596
C137       C   -0.0000000059   -0.0000000023    0.6850703436
C138       C   -0.0545048694   -0.0041087405    0.7186423471
F139       F   -0.1087398732   -0.0081907364    0.6901920285
H140       H   -0.0980428893   -0.0073881128    0.8057683924
H141       H    0.0980428665    0.0073881059    0.6942316110
F142       F    0.1087398504    0.0081907295    0.8098079749
C123       C    0.0547483901   -0.2819757299    0.5047524879
C124       C    0.0000000049   -0.3149290037    0.5000000012
C125       C   -0.0544543090   -0.2813575629    0.4952684423
C126       C   -0.0547464577   -0.2180234015    0.4952386271
C127       C    0.0000000017   -0.1850709874    0.5000000011
C128       C    0.0544543156   -0.2186424282    0.5047315599
F129       F    0.1086390968   -0.1901921687    0.5094332942
H130       H    0.0979519835   -0.3057674201    0.5085084350
H131       H   -0.0979519769   -0.1942325710    0.4914915672
F132       F   -0.1086390902   -0.3098078224    0.4905667080
C113       C   -0.0542002257    0.2180242515    0.5090727760
C114       C    0.0000000017    0.1850709963    0.5000000001
C115       C    0.0539102509    0.2186424555    0.4909804120
C116       C    0.0542005873    0.2819766170    0.4909363129
C117       C    0.0000000049    0.3149290126    0.5000000021
C118       C   -0.0539102443    0.2813575534    0.5090195903
F119       F   -0.1075520541    0.3098077944    0.5180007372
H120       H   -0.0969726544    0.1942325467    0.5162269354
H121       H    0.0969726610    0.3057674622    0.4837730669
F122       F    0.1075520607    0.1901922145    0.4819992650
loop_
_geom_bond_atom_site_label_1
_geom_bond_atom_site_label_2
_geom_bond_distance
_geom_bond_site_symmetry_2
_ccdc_geom_bond_type
O1          Cu9 1.951       .   S
O1          C11 1.250       .   A
O2          Cu9 1.951       .   S
O2          C12 1.250       .   A
O3          Cu9 1.951       .   S
O3          C13 1.250       .   A
O4          Cu9 1.951       .   S
O4          C14 1.250       .   A
O5         Cu10 1.951       .   S
O5          C14 1.250       .   A
O6         Cu10 1.951       .   S
O6          C13 1.251       .   A
O7         Cu10 1.951       .   S
O7          C12 1.250       .   A
O8         Cu10 1.951       .   S
O8          C11 1.250       .   A
Cu9        Cu10 2.630       .   S
C11        C114 1.540       .   S
C12        C127 1.540       .   S
C13        C137 1.540       .   S
C14        C147 1.540       .   S
O15        Cu23 1.951       .   S
O15         C25 1.250       .   A
O16        Cu23 1.951       .   S
O16         C26 1.250       .   A
O17        Cu23 1.951       .   S
O17         C27 1.250       .   A
O18        Cu23 1.951       .   S
O18         C28 1.250       .   A
O19        Cu24 1.951       .   S
O19         C28 1.250       .   A
O20        Cu24 1.951       .   S
O20         C27 1.251       .   A
O21        Cu24 1.951       .   S
O21         C26 1.250       .   A
O22        Cu24 1.951       .   S
O22         C25 1.250       .   A
Cu23       Cu24 2.630       .   S
C25        C117 1.540       .   S
C26        C124 1.540   1_565   S
C27        C167 1.540       .   S
C28        C154 1.540       .   S
O29        Cu37 1.951       .   S
O29         C39 1.250       .   A
O30        Cu37 1.951       .   S
O30         C40 1.250       .   A
O31        Cu37 1.951       .   S
O31         C41 1.250       .   A
O32        Cu37 1.951       .   S
O32         C42 1.250       .   A
O33        Cu38 1.951       .   S
O33         C42 1.250       .   A
O34        Cu38 1.951       .   S
O34         C41 1.251       .   A
O35        Cu38 1.951       .   S
O35         C40 1.250       .   A
O36        Cu38 1.951       .   S
O36         C39 1.250       .   A
Cu37       Cu38 2.630       .   S
C39        C174 1.540       .   S
C40        C184 1.540       .   S
C41        C194 1.540       .   S
C42        C204 1.540       .   S
O43        Cu51 1.951       .   S
O43         C53 1.250       .   A
O44        Cu51 1.951       .   S
O44         C54 1.250       .   A
O45        Cu51 1.951       .   S
O45         C55 1.250       .   A
O46        Cu51 1.951       .   S
O46         C56 1.250       .   A
O47        Cu52 1.951       .   S
O47         C56 1.250       .   A
O48        Cu52 1.951       .   S
O48         C55 1.251       .   A
O49        Cu52 1.951       .   S
O49         C54 1.250       .   A
O50        Cu52 1.951       .   S
O50         C53 1.250       .   A
Cu51       Cu52 2.630       .   S
C53        C177 1.540   1_545   S
C54        C187 1.540       .   S
C55        C224 1.540       .   S
C56        C217 1.540       .   S
O57        Cu65 1.951       .   S
O57         C67 1.250       .   A
O58        Cu65 1.951       .   S
O58         C68 1.250       .   A
O59        Cu65 1.951       .   S
O59         C69 1.250       .   A
O60        Cu65 1.951       .   S
O60         C70 1.250       .   A
O61        Cu66 1.951       .   S
O61         C70 1.250       .   A
O62        Cu66 1.951       .   S
O62         C69 1.251       .   A
O63        Cu66 1.951       .   S
O63         C68 1.250       .   A
O64        Cu66 1.951       .   S
O64         C67 1.250       .   A
Cu65       Cu66 2.630       .   S
C67        C244 1.540       .   S
C68        C237 1.540       .   S
C69        C134 1.540   1_664   S
C70        C144 1.540   1_665   S
O71        Cu79 1.951       .   S
O71         C81 1.250       .   A
O72        Cu79 1.951       .   S
O72         C82 1.250       .   A
O73        Cu79 1.951       .   S
O73         C83 1.250       .   A
O74        Cu79 1.951       .   S
O74         C84 1.250       .   A
O75        Cu80 1.951       .   S
O75         C84 1.250       .   A
O76        Cu80 1.951       .   S
O76         C83 1.251       .   A
O77        Cu80 1.951       .   S
O77         C82 1.250       .   A
O78        Cu80 1.951       .   S
O78         C81 1.250       .   A
Cu79       Cu80 2.630       .   S
C81        C264 1.540       .   S
C82        C257 1.540       .   S
C83        C157 1.540   1_554   S
C84        C164 1.540       .   S
O85        Cu93 1.951       .   S
O85         C95 1.250       .   A
O86        Cu93 1.951       .   S
O86         C96 1.250       .   A
O87        Cu93 1.951       .   S
O87         C97 1.250       .   A
O88        Cu93 1.951       .   S
O88         C98 1.250       .   A
O89        Cu94 1.951       .   S
O89         C98 1.250       .   A
O90        Cu94 1.951       .   S
O90         C97 1.251       .   A
O91        Cu94 1.951       .   S
O91         C96 1.250       .   A
O92        Cu94 1.951       .   S
O92         C95 1.250       .   A
Cu93       Cu94 2.630       .   S
C95        C247 1.540       .   S
C96        C234 1.540   1_455   S
C97        C207 1.540       .   S
C98        C197 1.540   1_554   S
O99       Cu107 1.951       .   S
O99        C109 1.250       .   A
O100      Cu107 1.951       .   S
O100       C110 1.250       .   A
O101      Cu107 1.951       .   S
O101       C111 1.250       .   A
O102      Cu107 1.951       .   S
O102       C112 1.250       .   A
O103      Cu108 1.951       .   S
O103       C112 1.250       .   A
O104      Cu108 1.951       .   S
O104       C111 1.251       .   A
O105      Cu108 1.951       .   S
O105       C110 1.250       .   A
O106      Cu108 1.951       .   S
O106       C109 1.250       .   A
Cu107     Cu108 2.630       .   S
C109       C254 1.540   1_556   S
C110       C267 1.540   1_656   S
C111       C214 1.540       .   S
C112       C227 1.540   1_556   S
C263       C264 1.403       .   A
C263       C268 1.387       .   A
C263       H270 1.083       .   S
C264       C265 1.404       .   A
C265       C266 1.387       .   A
C265       F272 1.344       .   S
C266       C267 1.403       .   A
C266       H271 1.083       .   S
C267       C268 1.404       .   A
C268       F269 1.344       .   S
C253       C254 1.403       .   A
C253       C258 1.387       .   A
C253       H260 1.083       .   S
C254       C255 1.404       .   A
C255       C256 1.387       .   A
C255       F262 1.344       .   S
C256       C257 1.403       .   A
C256       H261 1.083       .   S
C257       C258 1.404       .   A
C258       F259 1.344       .   S
C243       C244 1.403       .   A
C243       C248 1.387       .   A
C243       H250 1.083       .   S
C244       C245 1.404       .   A
C245       C246 1.387       .   A
C245       F252 1.344       .   S
C246       C247 1.403       .   A
C246       H251 1.083       .   S
C247       C248 1.404       .   A
C248       F249 1.344       .   S
C233       C234 1.403       .   A
C233       C238 1.387       .   A
C233       H240 1.083       .   S
C234       C235 1.404       .   A
C235       C236 1.387       .   A
C235       F242 1.344       .   S
C236       C237 1.403       .   A
C236       H241 1.083       .   S
C237       C238 1.404       .   A
C238       F239 1.344       .   S
C223       C224 1.403       .   A
C223       C228 1.387       .   A
C223       H230 1.083       .   S
C224       C225 1.404       .   A
C225       C226 1.387       .   A
C225       F232 1.344       .   S
C226       C227 1.403       .   A
C226       H231 1.083       .   S
C227       C228 1.404       .   A
C228       F229 1.344       .   S
C213       C214 1.403       .   A
C213       C218 1.387       .   A
C213       H220 1.083       .   S
C214       C215 1.404       .   A
C215       C216 1.387       .   A
C215       F222 1.344       .   S
C216       C217 1.403       .   A
C216       H221 1.083       .   S
C217       C218 1.404       .   A
C218       F219 1.344       .   S
C203       C204 1.403       .   A
C203       C208 1.387       .   A
C203       H210 1.083       .   S
C204       C205 1.404       .   A
C205       C206 1.387       .   A
C205       F212 1.344       .   S
C206       C207 1.403       .   A
C206       H211 1.083       .   S
C207       C208 1.404       .   A
C208       F209 1.344       .   S
C193       C194 1.403       .   A
C193       C198 1.387       .   A
C193       H200 1.083       .   S
C194       C195 1.404       .   A
C195       C196 1.387       .   A
C195       F202 1.344       .   S
C196       C197 1.403       .   A
C196       H201 1.083       .   S
C197       C198 1.404       .   A
C198       F199 1.344       .   S
C183       C184 1.403       .   A
C183       C188 1.387       .   A
C183       H190 1.083       .   S
C184       C185 1.404       .   A
C185       C186 1.387       .   A
C185       F192 1.344       .   S
C186       C187 1.403       .   A
C186       H191 1.083       .   S
C187       C188 1.404       .   A
C188       F189 1.344       .   S
C173       C174 1.403       .   A
C173       C178 1.387       .   A
C173       H180 1.083       .   S
C174       C175 1.404       .   A
C175       C176 1.387       .   A
C175       F182 1.344       .   S
C176       C177 1.403       .   A
C176       H181 1.083       .   S
C177       C178 1.404       .   A
C178       F179 1.344       .   S
C163       C164 1.403       .   A
C163       C168 1.387       .   A
C163       H170 1.083       .   S
C164       C165 1.404       .   A
C165       C166 1.387       .   A
C165       F172 1.344       .   S
C166       C167 1.403       .   A
C166       H171 1.083       .   S
C167       C168 1.404       .   A
C168       F169 1.344       .   S
C153       C154 1.403       .   A
C153       C158 1.387       .   A
C153       H160 1.083       .   S
C154       C155 1.404       .   A
C155       C156 1.387       .   A
C155       F162 1.344       .   S
C156       C157 1.403       .   A
C156       H161 1.083       .   S
C157       C158 1.404       .   A
C158       F159 1.344       .   S
C143       C144 1.403       .   A
C143       C148 1.387       .   A
C143       H150 1.083       .   S
C144       C145 1.404       .   A
C145       C146 1.387       .   A
C145       F152 1.344       .   S
C146       C147 1.403       .   A
C146       H151 1.083       .   S
C147       C148 1.404       .   A
C148       F149 1.344       .   S
C133       C134 1.403       .   A
C133       C138 1.387       .   A
C133       H140 1.083       .   S
C134       C135 1.404       .   A
C135       C136 1.387       .   A
C135       F142 1.344       .   S
C136       C137 1.403       .   A
C136       H141 1.083       .   S
C137       C138 1.404       .   A
C138       F139 1.344       .   S
C123       C124 1.403       .   A
C123       C128 1.387       .   A
C123       H130 1.083       .   S
C124       C125 1.404       .   A
C125       C126 1.387       .   A
C125       F132 1.344       .   S
C126       C127 1.403       .   A
C126       H131 1.083       .   S
C127       C128 1.404       .   A
C128       F129 1.344       .   S
C113       C114 1.403       .   A
C113       C118 1.387       .   A
C113       H120 1.083       .   S
C114       C115 1.404       .   A
C115       C116 1.387       .   A
C115       F122 1.344       .   S
C116       C117 1.403       .   A
C116       H121 1.083       .   S
C117       C118 1.404       .   A
C118       F119 1.344       .   S
