data_rna_v1-MIL-53_v2-0c_3-1B_2F_Ch_BOND_CHECK_FAILED
_audit_creation_date              2024-09-24
_audit_creation_method            'tobacco_3.0'
_symmetry_space_group_name_H-M    'P1'
_symmetry_Int_Tables_number       1
_symmetry_cell_setting            triclinic
loop_
_symmetry_equiv_pos_as_xyz
  x,y,z
_cell_length_a                    33.69667054324752
_cell_length_b                    15.978870745026788
_cell_length_c                    35.80071415318721
_cell_angle_alpha                 89.99998880561579
_cell_angle_beta                  89.96224717995837
_cell_angle_gamma                 90.42849463422499
loop_
_atom_site_label
_atom_site_type_symbol
_atom_site_fract_x
_atom_site_fract_y
_atom_site_fract_z
O1         O    0.8590057505    0.7972241714    0.1383270660
O2         O    0.8067707417    0.7494253376    0.1991440581
C3         C    0.8347685378    0.7498872849    0.1665523715
C4         C    0.8590235079    0.7033504910    0.1383288759
O5         O    0.6899107976    0.7007119259    0.4173849820
O6         O    0.7422292053    0.7473599666    0.3564563866
C7         C    0.7142399449    0.7475150694    0.3890534787
C8         C    0.6900916932    0.7945868511    0.4171801390
O9         O    0.8589167731    0.2972582199    0.9172013344
O10        O    0.8067160043    0.2494709593    0.8564213711
C11        C    0.8346933342    0.2499266697    0.8889939169
C12        C    0.8589266307    0.2033844098    0.9172021485
O13        O    0.6900496010    0.2946357056    0.6385224178
O14        O    0.7421692104    0.2474117642    0.6991956483
C15        C    0.7141887777    0.2475652752    0.6666265450
C16        C    0.6898658449    0.2007607257    0.6383209853
Cr17      Cr    0.5244955695    0.5030739650    0.5278934244
H18        H    0.5867394540    0.5663191439    0.5029360512
H19        H    0.4622516849    0.4398287861    0.5528507975
O20        O    0.5637650718    0.4695840131    0.5620892083
O21        O    0.5237462035    0.6139594390    0.5457392639
O22        O    0.5645831673    0.5331914836    0.4930940832
O23        O    0.4852260671    0.5365639170    0.4936976404
O24        O    0.5252449354    0.3921884910    0.5100475848
O25        O    0.4844079717    0.4729564464    0.5626927655
Cr26      Cr    0.5244804155    0.0030791629    0.5279421421
H27        H    0.5867119639    0.0663245678    0.5528493764
H28        H    0.4622488671   -0.0601662420    0.5030349077
O29        O    0.5237412679    0.1139627578    0.5100943033
O30        O    0.5637673030   -0.0304160419    0.4937164243
O31        O    0.5645502908    0.0331988448    0.5627094427
O32        O    0.5252195631   -0.1078044320    0.5457899808
O33        O    0.4851935280    0.0365743677    0.5621678598
O34        O    0.4844105402   -0.0270405190    0.4931748414
O35        O    0.1900024699    0.2086310025    0.9174814614
O36        O    0.2422370261    0.2565276910    0.8566792084
C37        C    0.2142415405    0.2560133285    0.8892726377
C38        C    0.1899924300    0.3025047785    0.9175156335
O39        O    0.3590310000    0.3056584932    0.6384041992
O40        O    0.3067201834    0.2589854498    0.6993348000
C41        C    0.3347080756    0.2588437660    0.6667366191
C42        C    0.3588601806    0.2117836425    0.6386089897
O43        O    0.1901345617    0.8024713527    0.1385370786
O44        O    0.2423410463    0.7564939889    0.1993377737
C45        C    0.2143676426    0.7559797995    0.1667622557
C46        C    0.1901507885    0.7085976703    0.1385666356
O47        O    0.3589003042    0.7117610551    0.4173170405
O48        O    0.3067872574    0.7589560094    0.3566342304
C49        C    0.3347594443    0.7588179844    0.3892096655
C50        C    0.3590664122    0.8056358544    0.4175229441
Cr51      Cr    0.0244787907    0.0028837130    0.0278543585
H52        H   -0.0374749822    0.0655536215    0.0030298910
H53        H    0.0864325637   -0.0597861955    0.0526788261
O54        O    0.0257973848    0.1137733012    0.0457049741
O55        O   -0.0149261562   -0.0309863234    0.0621297401
O56        O   -0.0154925099    0.0326362723   -0.0068599753
O57        O    0.0231601966   -0.1080058751    0.0100037429
O58        O    0.0638837376    0.0367537494   -0.0064210231
O59        O    0.0644500913   -0.0268688463    0.0625686924
Cr60      Cr    0.0245058288    0.5028674971    0.0279426283
H61        H   -0.0374453037    0.4382328667    0.0031177559
H62        H    0.0864569613    0.5675021276    0.0527675006
O63        O   -0.0149001161    0.5354823356    0.0622193599
O64        O    0.0258301177    0.3920179075    0.0457908045
O65        O   -0.0154646211    0.4718493869   -0.0067717336
O66        O    0.0639117736    0.4702526587   -0.0063341034
O67        O    0.0231815399    0.6137170868    0.0100944520
O68        O    0.0644762786    0.5338856074    0.0626569901
C299       C   -0.0098764773    0.2961670842    0.0467699176
C300       C    0.0258242182    0.3418697816    0.0457753352
C301       C    0.0613226280    0.2964087324    0.0447552409
C302       C    0.0615030607    0.2096229410    0.0447203671
C303       C    0.0258032843    0.1639214270    0.0457204433
C304       C   -0.0096951255    0.2093824763    0.0467405376
F305       F   -0.0450275630    0.1698560169    0.0477255250
H306       H   -0.0380411479    0.3283388128    0.0475792517
H307       H    0.0896686504    0.1774523959    0.0439165268
F308       F    0.0966550656    0.3359351918    0.0437702535
C289       C    0.0584331382   -0.2904021722    0.0047116096
C290       C    0.0231776924   -0.3361182979    0.0100781000
C291       C   -0.0118960846   -0.2906708936    0.0153834009
C292       C   -0.0120915935   -0.2038854504    0.0153810264
C293       C    0.0231640441   -0.1581704904    0.0100200950
C294       C    0.0582378211   -0.2036178948    0.0047147941
F295       F    0.0931304803   -0.1640781315   -0.0005956759
H296       H    0.0862603896   -0.3225630830    0.0005023258
H297       H   -0.0399186531   -0.1717257053    0.0195958692
F298       F   -0.0467887438   -0.3302106569    0.0206938709
C279       C    0.1346743612    0.5809241150    0.0668656655
C280       C    0.0961876226    0.5779705561    0.0818112075
C281       C    0.0897127801    0.6192548106    0.1158866612
C282       C    0.1199522550    0.6615696785    0.1343549655
C283       C    0.1584394445    0.6645127216    0.1194124183
C284       C    0.1649142871    0.6232284671    0.0853369645
F285       F    0.2010084429    0.6233788678    0.0693391491
H286       H    0.1411749872    0.5500623139    0.0406543904
H287       H    0.1134520800    0.6924209638    0.1605692354
F288       F    0.0536186242    0.6191044099    0.1318844767
C269       C    0.1658101398    0.8909117822    0.0865060977
C270       C    0.1584176263    0.8455379771    0.1193661787
C271       C    0.1192587133    0.8435892958    0.1328240396
C272       C    0.0887735036    0.8846816401    0.1145959423
C273       C    0.0961670267    0.9300645293    0.0817395922
C274       C    0.1353259397    0.9320132106    0.0682817313
F275       F    0.1446380747    0.9742075339    0.0369658511
H276       H    0.1955156458    0.8943110763    0.0750053826
H277       H    0.0590690071    0.8812914302    0.1261003884
F278       F    0.1099465783    0.8013949725    0.1641399198
C259       C    0.2337694988    0.7571922409    0.2718536386
C260       C    0.2593869117    0.7571451873    0.2409423022
C261       C    0.3003758232    0.7576845901    0.2480500344
C262       C    0.3153582965    0.7582453990    0.2841191364
C263       C    0.2897413920    0.7583048110    0.3150297019
C264       C    0.2487524805    0.7577654082    0.3079219697
F265       F    0.2224255893    0.7577722999    0.3361395170
H266       H    0.2019138384    0.7567923627    0.2678368082
H267       H    0.3472144653    0.7586576356    0.2881351959
F268       F    0.3267027145    0.7576776984    0.2198324871
C249       C    0.1009479486    0.3414276834    0.9783649894
C250       C    0.0956641938    0.4280066764    0.9744880527
C251       C    0.1223786556    0.4715825582    0.9513194542
C252       C    0.1529529205    0.4313258498    0.9328122528
C253       C    0.1582400099    0.3447507607    0.9366934774
C254       C    0.1315255480    0.3011748789    0.9598620759
F255       F    0.1347477913    0.2181564811    0.9649100394
H256       H    0.0811239278    0.3050320512    0.9959201219
H257       H    0.1727802759    0.4677253860    0.9152614083
F258       F    0.1191564123    0.5546009561    0.9462714908
C239       C    0.1007954045    0.0715403919    0.9357059893
C240       C    0.0956523172    0.0800486359    0.9744104527
C241       C    0.1225096395    0.1320918098    0.9936140366
C242       C    0.1530874776    0.1738539482    0.9753527488
C243       C    0.1582338903    0.1653361161    0.9366499857
C244       C    0.1313765680    0.1132929421    0.9174464017
F245       F    0.1344594102    0.1021396568    0.8803510480
H246       H    0.0808581624    0.0321151946    0.9196432482
H247       H    0.1730280451    0.2132695573    0.9914171901
F248       F    0.1194267973    0.1432450952    1.0307093903
C229       C    0.2618830373    0.1829959217    0.7942669989
C230       C    0.2592911001    0.2571777026    0.8150658120
C231       C    0.2722297297    0.3315540121    0.7978833835
C232       C    0.2870688624    0.3325174992    0.7617445218
C233       C    0.2896661094    0.2583354382    0.7409481964
C234       C    0.2767274798    0.1839591287    0.7581306249
F235       F    0.2783177110    0.1105044700    0.7399220485
H236       H    0.2522839430    0.1240111080    0.8062767972
H237       H    0.2966732665    0.3915020328    0.7497372112
F238       F    0.2706394985    0.4050086708    0.8160919600
C219       C    0.4462438130   -0.0548263378    0.4361810850
C220       C    0.4531574445   -0.0687607128    0.4743119236
C221       C    0.4279302396   -0.1254832376    0.4928601371
C222       C    0.3972365330   -0.1665873877    0.4745145871
C223       C    0.3903195078   -0.1526439518    0.4363858619
C224       C    0.4155467128   -0.0959214270    0.4178376484
F225       F    0.4107197994   -0.0794428266    0.3813152364
H226       H    0.4648820916   -0.0116579069    0.4206347774
H227       H    0.3785948607   -0.2097467577    0.4900630081
F228       F    0.4327571530   -0.1419618379    0.5293825492
C209       C    0.4492883483    0.1683501618    0.5786306298
C210       C    0.4530066160    0.0812137731    0.5816433504
C211       C    0.4250463971    0.0384482272    0.6037923956
C212       C    0.3947617441    0.0800083088    0.6221417980
C213       C    0.3910470926    0.1671442371    0.6191334991
C214       C    0.4190073114    0.2099097829    0.5969844539
F215       F    0.4173132642    0.2933933833    0.5927998062
H216       H    0.4701157602    0.2041621985    0.5618796361
H217       H    0.3739379484    0.0441958116    0.6388972134
F218       F    0.4267404444   -0.0450353732    0.6079770433
C199       C    0.4580052326    0.6645471745    0.4626928491
C200       C    0.4530339265    0.5812101615    0.4742332417
C201       C    0.4164427748    0.5422091930    0.4665741327
C202       C    0.3861232383    0.5837757599    0.4483166875
C203       C    0.3910924448    0.6671148106    0.4367814391
C204       C    0.4276835965    0.7061157791    0.4444405482
F205       F    0.4345901827    0.7858394666    0.4342188411
H206       H    0.4856795729    0.6973723761    0.4679504574
H207       H    0.3584467984    0.5509525960    0.4430642234
F208       F    0.4095361886    0.4624855055    0.4767958397
C189       C    0.4156557573    0.4680576288    0.5850219974
C190       C    0.4531522974    0.4312501406    0.5815671399
C191       C    0.4583271183    0.3517781334    0.5975245632
C192       C    0.4277806787    0.3105526876    0.6160703506
C193       C    0.3902866742    0.3473647990    0.6195298247
C194       C    0.3851118534    0.4268368061    0.6035724015
F195       F    0.3500167730    0.4659538548    0.6057735152
H196       H    0.4101737737    0.5292744713    0.5731938234
H197       H    0.4332651979    0.2493404683    0.6279031412
F198       F    0.4934221987    0.3126610848    0.5953234494
C179       C    0.5311652264    0.7091748432    0.5787272482
C180       C    0.5240117241    0.6641015920    0.5457484039
C181       C    0.5173809709    0.7101904639    0.5129624903
C182       C    0.5178064416    0.7969812962    0.5128016148
C183       C    0.5249540425    0.8420534150    0.5457808409
C184       C    0.5315847957    0.7959645431    0.5785667545
F185       F    0.5386355833    0.8348679190    0.6112047487
H186       H    0.5364454163    0.6765050877    0.6047403610
H187       H    0.5125203504    0.8296499193    0.4867888837
F188       F    0.5103301833    0.6712870880    0.4803244961
C169       C    0.4892855966    0.2971832790    0.5060049328
C170       C    0.5249739704    0.3420514597    0.5100560036
C171       C    0.5599798916    0.2957586676    0.5140978289
C172       C    0.5597005702    0.2089667875    0.5141313939
C173       C    0.5240122328    0.1640997891    0.5100858845
C174       C    0.4890063117    0.2103925812    0.5060440592
F175       F    0.4537164126    0.1716921483    0.5020326396
H176       H    0.4614908694    0.3300148388    0.5028000149
H177       H    0.5874953339    0.1761364100    0.5173418732
F178       F    0.5952697907    0.3344591005    0.5181092484
C159       C    0.6569245642    0.0712814535    0.6179697320
C160       C    0.6586178224    0.1589783830    0.6194668917
C161       C    0.6282042287    0.2032883809    0.6015925457
C162       C    0.5974883155    0.1626759922    0.5830652764
C163       C    0.5957983132    0.0749811874    0.5815635363
C164       C    0.6262119070    0.0306711895    0.5994378822
F165       F    0.6265496555   -0.0534295010    0.5991723893
H166       H    0.6796795689    0.0342867523    0.6313200983
H167       H    0.5747365668    0.1996728181    0.5697103297
F168       F    0.6278664801    0.2873890715    0.6018580387
C149       C    0.6579232677    0.4268544855    0.6167129406
C150       C    0.6578790565    0.3392031783    0.6190513236
C151       C    0.6261880512    0.2958660949    0.6022195963
C152       C    0.5958943498    0.3373665889    0.5838938686
C153       C    0.5959356163    0.4250165404    0.5815603026
C154       C    0.6276266216    0.4683536238    0.5983920299
F155       F    0.6296571030    0.5523507738    0.5972788611
H156       H    0.6817096089    0.4631172205    0.6292471674
H157       H    0.5721050639    0.3011024982    0.5713644587
F158       F    0.6241575698    0.2118689449    0.6033327650
C139       C    0.9090991255    0.0907794931    0.9201708008
C140       C    0.8906042607    0.1603133850    0.9363573920
C141       C    0.9040033336    0.1862505676    0.9716807811
C142       C    0.9343393982    0.1452471078    0.9901686825
C143       C    0.9528298602    0.0757072971    0.9739847812
C144       C    0.9394307873    0.0497701145    0.9386613920
F145       F    0.9557408374   -0.0163334982    0.9214345343
H146       H    0.8998301724    0.0683466861    0.8929699217
H147       H    0.9436039485    0.1676739960    1.0173722514
F148       F    0.8876932835    0.2523541803    0.9889076389
C129       C    0.9302410868    0.3165152777    0.9323597012
C130       C    0.8906122753    0.3413102509    0.9363840962
C131       C    0.8829900975    0.4101646698    0.9596269371
C132       C    0.9132125800    0.4525995289    0.9780655492
C133       C    0.9528398768    0.4277973559    0.9740455047
C134       C    0.9604620545    0.3589429370    0.9508026638
F135       F    0.9976876917    0.3316317543    0.9456112867
H136       H    0.9376510499    0.2637788436    0.9147446261
H137       H    0.9058011021    0.5053287632    0.9956849747
F138       F    0.8457644604    0.4374758525    0.9648183141
C119       C    0.8002666274    0.2483955824    0.7474384226
C120       C    0.7592387546    0.2479563230    0.7407743427
C121       C    0.7339670830    0.2480213375    0.7719894998
C122       C    0.7486195040    0.2484995126    0.8081788103
C123       C    0.7896464602    0.2489264006    0.8148426767
C124       C    0.8149181317    0.2488613860    0.7836275196
F125       F    0.8545485581    0.2492675143    0.7878480932
H126       H    0.8209829204    0.2483625567    0.7242944828
H127       H    0.7279022944    0.2485201669    0.8313225366
F128       F    0.6943366567    0.2476152093    0.7677689262
C109       C    0.6533489674    0.8329299097    0.4755395384
C110       C    0.6579085059    0.8391702025    0.4366789991
C111       C    0.6307893661    0.8892350606    0.4172067156
C112       C    0.6005133848    0.9312506843    0.4353585604
C113       C    0.5959504904    0.9250006066    0.4742175642
C114       C    0.6230696301    0.8749357485    0.4936898477
F115       F    0.6205443379    0.8660096825    0.5309467512
H116       H    0.6735075852    0.7950861547    0.4918106414
H117       H    0.5803514110    0.9690846545    0.4190859219
F118       F    0.6333146583    0.8981611266    0.3799498120
C99        C    0.6379821512    0.6981392261    0.4653564252
C100       C    0.6586652892    0.6589473018    0.4362600644
C101       C    0.6471306187    0.5770545287    0.4267121693
C102       C    0.6165074641    0.5357693796    0.4451196547
C103       C    0.5958286756    0.5749561077    0.4742190008
C104       C    0.6073633462    0.6568488808    0.4837668959
F105       F    0.5889071675    0.6983311788    0.5113458155
H106       H    0.6457584954    0.7612722497    0.4737637152
H107       H    0.6087354695    0.4726311598    0.4367153501
F108       F    0.6655867973    0.5355722307    0.3991332498
C89        C    0.9305689667    0.6829238247    0.1257247728
C90        C    0.8907754478    0.6610734225    0.1191609330
C91        C    0.8831654776    0.5967686231    0.0933348049
C92        C    0.9135555803    0.5559010130    0.0748276161
C93        C    0.9533479440    0.5777594042    0.0813873028
C94        C    0.9609579142    0.6420642036    0.1072134310
F95        F    0.9983354308    0.6663592489    0.1149216511
H96        H    0.9379768762    0.7321202602    0.1453870112
H97        H    0.9061465156    0.5067125665    0.0551612246
F98        F    0.8457879610    0.5724735778    0.0856265847
C79        C    0.8995670981    0.9246255892    0.1269951018
C80        C    0.8907603492    0.8404952851    0.1191341406
C81        C    0.9139657708    0.8003695944    0.0919984368
C82        C    0.9445165213    0.8416105956    0.0734657345
C83        C    0.9533192451    0.9257425629    0.0813226655
C84        C    0.9301138235    0.9658682536    0.1084583692
F85        F    0.9368247973    1.0463982134    0.1174515370
H86        H    0.8825251770    0.9583286658    0.1476955543
H87        H    0.9615544173    0.8079091821    0.0527612517
F88        F    0.9072547970    0.7198396346    0.0830052691
C69        C    0.7999547827    0.7373892321    0.3079882608
C70        C    0.7592977497    0.7479061711    0.3148538372
C71        C    0.7343928415    0.7588575939    0.2838190530
C72        C    0.7490452413    0.7593836191    0.2476116318
C73        C    0.7897021973    0.7488791331    0.2407466075
C74        C    0.8146071054    0.7379277104    0.2717813917
F75        F    0.8538704471    0.7274854009    0.2673625760
H76        H    0.8203801970    0.7287243974    0.3309883145
H77        H    0.7286197500    0.7680609068    0.2246121302
F78        F    0.6951294998    0.7692999033    0.2882378687
loop_
_geom_bond_atom_site_label_1
_geom_bond_atom_site_label_2
_geom_bond_distance
_geom_bond_site_symmetry_2
_ccdc_geom_bond_type
C3           O1 1.498       .   A
C3           O2 1.498       .   A
C3           C4 1.498       .   A
C7           O5 1.498       .   A
C7           O6 1.498       .   A
C7           C8 1.498       .   A
C11          O9 1.498       .   A
C11         O10 1.498       .   A
C11         C12 1.498       .   A
C15         O13 1.498       .   A
C15         O14 1.498       .   A
C15         C16 1.498       .   A
O20        Cr17 1.896       .   A
O21        Cr17 1.896       .   A
O22        Cr17 1.896       .   A
O23        Cr17 1.896       .   A
O24        Cr17 1.896       .   A
O25        Cr17 1.896       .   A
O22         H18 0.978       .   S
O25         H19 0.978       .   S
O29        Cr26 1.896       .   A
O30        Cr26 1.896       .   A
O31        Cr26 1.896       .   A
O32        Cr26 1.896       .   A
O33        Cr26 1.896       .   A
O34        Cr26 1.896       .   A
O31         H27 0.978       .   S
O34         H28 0.978       .   S
C37         O35 1.498       .   A
C37         O36 1.498       .   A
C37         C38 1.498       .   A
C41         O39 1.498       .   A
C41         O40 1.498       .   A
C41         C42 1.498       .   A
C45         O43 1.498       .   A
C45         O44 1.498       .   A
C45         C46 1.498       .   A
C49         O47 1.498       .   A
C49         O48 1.498       .   A
C49         C50 1.498       .   A
O54        Cr51 1.896       .   A
O55        Cr51 1.896       .   A
O56        Cr51 1.896       .   A
O57        Cr51 1.896       .   A
O58        Cr51 1.896       .   A
O59        Cr51 1.896       .   A
O56         H52 0.978       .   S
O59         H53 0.978       .   S
O63        Cr60 1.896       .   A
O64        Cr60 1.896       .   A
O65        Cr60 1.896       .   A
O66        Cr60 1.896       .   A
O67        Cr60 1.896       .   A
O68        Cr60 1.896       .   A
O65         H61 0.978       .   S
O68         H62 0.978       .   S
C69         C70 1.403       .   A
C69         C74 1.387       .   A
C69         H76 1.083       .   S
C70         C71 1.404       .   A
C71         C72 1.387       .   A
C71         F78 1.344       .   S
C72         C73 1.403       .   A
C72         H77 1.083       .   S
C73         C74 1.404       .   A
C74         F75 1.344       .   S
C79         C80 1.403       .   A
C79         C84 1.387       .   A
C79         H86 1.083       .   S
C80         C81 1.404       .   A
C81         C82 1.387       .   A
C81         F88 1.344       .   S
C82         C83 1.403       .   A
C82         H87 1.083       .   S
C83         C84 1.404       .   A
C84         F85 1.344       .   S
C89         C90 1.403       .   A
C89         C94 1.387       .   A
C89         H96 1.083       .   S
C90         C91 1.404       .   A
C91         C92 1.387       .   A
C91         F98 1.344       .   S
C92         C93 1.403       .   A
C92         H97 1.083       .   S
C93         C94 1.404       .   A
C94         F95 1.344       .   S
C99        C100 1.403       .   A
C99        C104 1.387       .   A
C99        H106 1.083       .   S
C100       C101 1.404       .   A
C101       C102 1.387       .   A
C101       F108 1.344       .   S
C102       C103 1.403       .   A
C102       H107 1.083       .   S
C103       C104 1.404       .   A
C104       F105 1.344       .   S
C109       C110 1.403       .   A
C109       C114 1.387       .   A
C109       H116 1.083       .   S
C110       C111 1.404       .   A
C111       C112 1.387       .   A
C111       F118 1.344       .   S
C112       C113 1.403       .   A
C112       H117 1.083       .   S
C113       C114 1.404       .   A
C114       F115 1.344       .   S
C119       C120 1.403       .   A
C119       C124 1.387       .   A
C119       H126 1.083       .   S
C120       C121 1.404       .   A
C121       C122 1.387       .   A
C121       F128 1.344       .   S
C122       C123 1.403       .   A
C122       H127 1.083       .   S
C123       C124 1.404       .   A
C124       F125 1.344       .   S
C129       C130 1.403       .   A
C129       C134 1.387       .   A
C129       H136 1.083       .   S
C130       C131 1.404       .   A
C131       C132 1.387       .   A
C131       F138 1.344       .   S
C132       C133 1.403       .   A
C132       H137 1.083       .   S
C133       C134 1.404       .   A
C134       F135 1.344       .   S
C139       C140 1.403       .   A
C139       C144 1.387       .   A
C139       H146 1.083       .   S
C140       C141 1.404       .   A
C141       C142 1.387       .   A
C141       F148 1.344       .   S
C142       C143 1.403       .   A
C142       H147 1.083       .   S
C143       C144 1.404       .   A
C144       F145 1.344       .   S
C149       C150 1.403       .   A
C149       C154 1.387       .   A
C149       H156 1.083       .   S
C150       C151 1.404       .   A
C151       C152 1.387       .   A
C151       F158 1.344       .   S
C152       C153 1.403       .   A
C152       H157 1.083       .   S
C153       C154 1.404       .   A
C154       F155 1.344       .   S
C159       C160 1.403       .   A
C159       C164 1.387       .   A
C159       H166 1.083       .   S
C160       C161 1.404       .   A
C161       C162 1.387       .   A
C161       F168 1.344       .   S
C162       C163 1.403       .   A
C162       H167 1.083       .   S
C163       C164 1.404       .   A
C164       F165 1.344       .   S
C169       C170 1.403       .   A
C169       C174 1.387       .   A
C169       H176 1.083       .   S
C170       C171 1.404       .   A
C171       C172 1.387       .   A
C171       F178 1.344       .   S
C172       C173 1.403       .   A
C172       H177 1.083       .   S
C173       C174 1.404       .   A
C174       F175 1.344       .   S
C179       C180 1.403       .   A
C179       C184 1.387       .   A
C179       H186 1.083       .   S
C180       C181 1.404       .   A
C181       C182 1.387       .   A
C181       F188 1.344       .   S
C182       C183 1.403       .   A
C182       H187 1.083       .   S
C183       C184 1.404       .   A
C184       F185 1.344       .   S
C189       C190 1.403       .   A
C189       C194 1.387       .   A
C189       H196 1.083       .   S
C190       C191 1.404       .   A
C191       C192 1.387       .   A
C191       F198 1.344       .   S
C192       C193 1.403       .   A
C192       H197 1.083       .   S
C193       C194 1.404       .   A
C194       F195 1.344       .   S
C199       C200 1.403       .   A
C199       C204 1.387       .   A
C199       H206 1.083       .   S
C200       C201 1.404       .   A
C201       C202 1.387       .   A
C201       F208 1.344       .   S
C202       C203 1.403       .   A
C202       H207 1.083       .   S
C203       C204 1.404       .   A
C204       F205 1.344       .   S
C209       C210 1.403       .   A
C209       C214 1.387       .   A
C209       H216 1.083       .   S
C210       C211 1.404       .   A
C211       C212 1.387       .   A
C211       F218 1.344       .   S
C212       C213 1.403       .   A
C212       H217 1.083       .   S
C213       C214 1.404       .   A
C214       F215 1.344       .   S
C219       C220 1.403       .   A
C219       C224 1.387       .   A
C219       H226 1.083       .   S
C220       C221 1.404       .   A
C221       C222 1.387       .   A
C221       F228 1.344       .   S
C222       C223 1.403       .   A
C222       H227 1.083       .   S
C223       C224 1.404       .   A
C224       F225 1.344       .   S
C229       C230 1.403       .   A
C229       C234 1.387       .   A
C229       H236 1.083       .   S
C230       C231 1.404       .   A
C231       C232 1.387       .   A
C231       F238 1.344       .   S
C232       C233 1.403       .   A
C232       H237 1.083       .   S
C233       C234 1.404       .   A
C234       F235 1.344       .   S
C239       C240 1.403       .   A
C239       C244 1.387       .   A
C239       H246 1.083       .   S
C240       C241 1.404       .   A
C241       C242 1.387       .   A
C241       F248 1.344       .   S
C242       C243 1.403       .   A
C242       H247 1.083       .   S
C243       C244 1.404       .   A
C244       F245 1.344       .   S
C249       C250 1.403       .   A
C249       C254 1.387       .   A
C249       H256 1.083       .   S
C250       C251 1.404       .   A
C251       C252 1.387       .   A
C251       F258 1.344       .   S
C252       C253 1.403       .   A
C252       H257 1.083       .   S
C253       C254 1.404       .   A
C254       F255 1.344       .   S
C259       C260 1.403       .   A
C259       C264 1.387       .   A
C259       H266 1.083       .   S
C260       C261 1.404       .   A
C261       C262 1.387       .   A
C261       F268 1.344       .   S
C262       C263 1.403       .   A
C262       H267 1.083       .   S
C263       C264 1.404       .   A
C264       F265 1.344       .   S
C269       C270 1.403       .   A
C269       C274 1.387       .   A
C269       H276 1.083       .   S
C270       C271 1.404       .   A
C271       C272 1.387       .   A
C271       F278 1.344       .   S
C272       C273 1.403       .   A
C272       H277 1.083       .   S
C273       C274 1.404       .   A
C274       F275 1.344       .   S
C279       C280 1.403       .   A
C279       C284 1.387       .   A
C279       H286 1.083       .   S
C280       C281 1.404       .   A
C281       C282 1.387       .   A
C281       F288 1.344       .   S
C282       C283 1.403       .   A
C282       H287 1.083       .   S
C283       C284 1.404       .   A
C284       F285 1.344       .   S
C289       C290 1.403       .   A
C289       C294 1.387       .   A
C289       H296 1.083       .   S
C290       C291 1.404       .   A
C291       C292 1.387       .   A
C291       F298 1.344       .   S
C292       C293 1.403       .   A
C292       H297 1.083       .   S
C293       C294 1.404       .   A
C294       F295 1.344       .   S
C299       C300 1.403       .   A
C299       C304 1.387       .   A
C299       H306 1.083       .   S
C300       C301 1.404       .   A
C301       C302 1.387       .   A
C301       F308 1.344       .   S
C302       C303 1.403       .   A
C302       H307 1.083       .   S
C303       C304 1.404       .   A
C304       F305 1.344       .   S
O1          C80 1.443       .   S
O2          C73 1.596       .   S
C4          C90 1.443       .   S
O5         C100 1.414       .   S
O6          C70 1.596       .   S
C8         C110 1.477       .   S
O9         C130 1.448       .   S
O10        C123 1.596       .   S
C12        C140 1.448       .   S
O13        C150 1.477       .   S
O14        C120 1.596       .   S
C16        C160 1.414       .   S
O20        C153 1.477       .   S
O21        C180 0.801       .   S
O22        C103 1.414       .   S
O23        C200 1.478       .   S
O24        C170 0.801       .   S
O25        C190 1.414       .   S
O29        C173 0.801       .   S
O30        C113 1.477   1_545   S
O31        C163 1.414       .   S
O32        C183 0.801   1_545   S
O33        C210 1.477       .   S
O34        C220 1.414       .   S
O35        C243 1.443       .   S
O36        C230 1.596       .   S
C38        C253 1.443       .   S
O39        C193 1.414       .   S
O40        C233 1.596       .   S
C42        C213 1.477       .   S
O43        C270 1.449       .   S
O44        C260 1.597       .   S
C46        C283 1.448       .   S
O47        C223 2.500   1_565   S
O48        C263 1.597       .   S
C50        C223 1.414   1_565   S
O54        C303 0.801       .   S
O55         C83 1.443   1_445   S
O56        C143 1.448   1_454   S
O57        C293 0.802       .   S
O58        C240 1.443   1_554   S
O59        C273 1.449   1_545   S
O63         C93 1.443   1_455   S
O64        C300 0.801       .   S
O65        C133 1.448   1_454   S
O66        C250 1.443   1_554   S
O67        C290 0.802   1_565   S
O68        C280 1.448       .   S
