data_csq_v1-tetracenter_v2-8c_Zr_1_Ch_1-tetraedgenobond
_audit_creation_date              2024-12-07
_audit_creation_method            'tobacco_3.0'
_symmetry_space_group_name_H-M    'P1'
_symmetry_Int_Tables_number       1
_symmetry_cell_setting            triclinic
loop_
_symmetry_equiv_pos_as_xyz
  x,y,z
_cell_length_a                    43.32444983929167
_cell_length_b                    43.32964680489529
_cell_length_c                    16.002519976004127
_cell_angle_alpha                 89.99866321125361
_cell_angle_beta                  89.99762144042764
_cell_angle_gamma                 120.00801341385639
loop_
_atom_site_label
_atom_site_type_symbol
_atom_site_fract_x
_atom_site_fract_y
_atom_site_fract_z
N1         N    0.7040820707    0.5003682982    0.0015324530
C2         C    0.6845524885    0.4992943152    0.0710169596
C3         C    0.6836733304    0.4987720108   -0.0666433016
C4         C    0.6511934337    0.4961345669    0.0457226299
C5         C    0.6506358445    0.4957728786   -0.0391360254
N6         N    0.7507435032    0.5003800914    0.1246874076
C7         C    0.7259970284    0.5012814722    0.1778576567
C8         C    0.7765313997    0.5005999901    0.1762011973
C9         C    0.7676874445    0.5016551959    0.2625035911
C10        C    0.7368271957    0.5026063923    0.2634888920
N11        N    0.7954711936    0.4987754433   -0.0015753464
C12        C    0.8151276006    0.4987888104    0.0666688414
C13        C    0.8148023791    0.4993422185   -0.0710468567
C14        C    0.8472420107    0.4996645858    0.0392660472
C15        C    0.8470655824    0.5000562212   -0.0456436503
N16        N    0.7496560538    0.5004134124   -0.1246756006
C17        C    0.7241340779    0.5007336972   -0.1761478743
C18        C    0.7751963183    0.5011107508   -0.1778904670
C19        C    0.7654405890    0.5019345972   -0.2635438602
C20        C    0.7342040669    0.5021487301   -0.2624447793
C21        C    0.6944725596    0.5004655446    0.1546231220
C22        C    0.6926420032    0.4995329615   -0.1508588413
C23        C    0.8059960071    0.5004670204   -0.1546602994
C24        C    0.8068894302    0.4995344734    0.1508960187
H25        H    0.6309875553    0.4941822284    0.0883676553
H26        H    0.6298739318    0.4934690221   -0.0803994956
H27        H    0.7834892883    0.5018063010    0.3147948115
H28        H    0.7221851271    0.5038025185    0.3167518212
H29        H    0.8672570693    0.5003291243    0.0806524948
H30        H    0.8669040137    0.5011031856   -0.0882296843
H31        H    0.7809054829    0.5023764873   -0.3168702375
H32        H    0.7188670108    0.5029472011   -0.3146788362
Co33      Co    0.7499939473    0.4999851843   -0.0000001581
N34        N    0.4907735566    0.1949736233    0.9998054419
C35        C    0.4918474541    0.1762094157    1.0686574144
C36        C    0.4923698130    0.1764719717    0.9309867815
C37        C    0.4950072216    0.1461308066    1.0423148088
C38        C    0.4953689483    0.1463167427    0.9574498889
N39        N    0.4907622910    0.2410605440    1.1244918408
C40        C    0.4898605174    0.2151780458    1.1768263987
C41        C    0.4905426569    0.2663919378    1.1768497527
C42        C    0.4894872193    0.2561060843    1.2628365999
C43        C    0.4885355541    0.2242958480    1.2627873816
N44        N    0.4923676457    0.2879526304    0.9997413750
C45        C    0.4923544999    0.3072850197    1.0686293475
C46        C    0.4918010174    0.3070257294    0.9309040900
C47        C    0.4914789777    0.3386406584    1.0422747437
C48        C    0.4910872904    0.3384544386    0.9573591282
N49        N    0.4907289514    0.2410615046    0.8751108047
C50        C    0.4904083370    0.2154555029    0.8227944072
C51        C    0.4900318139    0.2661388045    0.8227318610
C52        C    0.4892077529    0.2559461411    0.7367492774
C53        C    0.4889932396    0.2244964018    0.7368133852
C54        C    0.4906761905    0.1845801230    1.1525659210
C55        C    0.4916088674    0.1850566141    0.8470612363
C56        C    0.4906759738    0.2974720534    0.8469877623
C57        C    0.4916086508    0.2979237745    1.1525661648
H58        H    0.4969595770    0.1276896745    1.0843212269
H59        H    0.4976728589    0.1280486555    0.9155413627
H60        H    0.4893362745    0.2715186229    1.3156432694
H61        H    0.4873391125    0.2082206259    1.3155434641
H62        H    0.4908145826    0.3578011250    1.0843082197
H63        H    0.4900404186    0.3574334827    0.9154142783
H64        H    0.4887659818    0.2712059749    0.6839302996
H65        H    0.4881944943    0.2085985402    0.6840637894
Co66      Co    0.4911572381    0.2412669090    0.9997951539
N67        N    0.7036522166    0.1954698516    0.0015598252
C68        C    0.6851958827    0.1759397760    0.0710458410
C69        C    0.6848386672    0.1750602937   -0.0666144411
C70        C    0.6549952344    0.1425798663    0.0457538406
C71        C    0.6547991213    0.1420220905   -0.0391048338
N72        N    0.7503053322    0.2421343283    0.1247106938
C73        C    0.7246557588    0.2173863136    0.1778832803
C74        C    0.7758751327    0.2679237768    0.1762222653
C75        C    0.7659753648    0.2590792368    0.2625256322
C76        C    0.7341616109    0.2282169108    0.2635138155
N77        N    0.7966406677    0.2868646930   -0.0015562804
C78        C    0.8162852241    0.3065224340    0.0666861877
C79        C    0.8154059499    0.3061965397   -0.0710293779
C80        C    0.8475256202    0.3386382592    0.0392807443
C81        C    0.8469571457    0.3384613996   -0.0456288640
N82        N    0.7491836492    0.2410459745   -0.1246522128
C83        C    0.7233394432    0.2155222712   -0.1761221902
C84        C    0.7740278711    0.2665872594   -0.1778691858
C85        C    0.7634471240    0.2568304023   -0.2635215695
C86        C    0.7319943546    0.2255920423   -0.2624197116
C87        C    0.6939453083    0.1858602731    0.1546513543
C88        C    0.6930464729    0.1840289242   -0.1508306236
C89        C    0.8054735845    0.2973889941   -0.1546418377
C90        C    0.8073009083    0.2982838153    0.1509142268
H91        H    0.6367410863    0.1223736769    0.0884002695
H92        H    0.6363402449    0.1212596797   -0.0803669177
H93        H    0.7816272724    0.2748820949    0.3148154965
H94        H    0.7183222759    0.2135737697    0.3167782522
H95        H    0.8668773978    0.3586543527    0.0806655632
H96        H    0.8657494652    0.3583004409   -0.0882164395
H97        H    0.7784708363    0.2722958367   -0.3168492187
H98        H    0.7158574078    0.2102536632   -0.3146522747
Co99      Co    0.7499503355    0.2413844539    0.0000231196
N100       N    0.4973130754    0.7904467746    0.9997108008
C101       C    0.4962392516    0.8092103544    1.0685620164
C102       C    0.4957168927    0.8089491352    0.9308915340
C103       C    0.4930796051    0.8392892885    1.0422185720
C104       C    0.4927178784    0.8391041767    0.9573537565
N105       N    0.4973241648    0.7443585565    1.1243997425
C106       C    0.4982260357    0.7702405930    1.1767326360
C107       C    0.4975437018    0.7190266056    1.1767589965
C108       C    0.4985991767    0.7293116407    1.2627450008
C109       C    0.4995509615    0.7611219346    1.2626937776
N110       N    0.4957186341    0.6974675966    0.9996522849
C111       C    0.4957317059    0.6781345022    1.0685413218
C112       C    0.4962851884    0.6783951266    0.9308159058
C113       C    0.4966071066    0.6467790558    1.0421882221
C114       C    0.4969987940    0.6469660981    0.9572724943
N115       N    0.4973575044    0.7443600146    0.8750186977
C116       C    0.4976782160    0.7699665714    0.8227008023
C117       C    0.4980545447    0.7192831721    0.8226409577
C118       C    0.4988786432    0.7294766858    0.7366575965
C119       C    0.4990932761    0.7609264838    0.7367199113
C120       C    0.4974104810    0.8008388128    1.1524706805
C121       C    0.4964778041    0.8003652876    0.8469662649
C122       C    0.4974102663    0.6879496305    0.8468987575
C123       C    0.4964775894    0.6874949483    1.1524774279
H124       H    0.4911273239    0.8577300560    1.0842244797
H125       H    0.4904140420    0.8573727141    0.9154448211
H126       H    0.4987500623    0.7138985599    1.3155524824
H127       H    0.5007474623    0.7771966711    1.3154486607
H128       H    0.4972714273    0.6276181423    1.0842225835
H129       H    0.4980455912    0.6279874206    0.9153284202
H130       H    0.4993203551    0.7142173335    0.6838393467
H131       H    0.4998920807    0.7768248844    0.6839692293
Co132     Co    0.4969292177    0.7441534020    0.9997031699
N133       N    0.2931816213    0.4942165672    0.0015258499
C134       C    0.3127114127    0.4952900498    0.0710049529
C135       C    0.3135897048    0.4958123379   -0.0666556003
C136       C    0.3460699516    0.4984489608    0.0457012566
C137       C    0.3466270078    0.4988106392   -0.0391575872
N138       N    0.2465215801    0.4942060031    0.1246934512
C139       C    0.2712680404    0.4933039584    0.1778570868
C140       C    0.2207343426    0.4939867809    0.1762142522
C141       C    0.2295786977    0.4929313282    0.2625143581
C142       C    0.2604385210    0.4919793062    0.2634913938
N143       N    0.2017937252    0.4958118507   -0.0015573469
C144       C    0.1821380072    0.4957990013    0.0666921692
C145       C    0.1824623414    0.4952455773   -0.0710235598
C146       C    0.1500238245    0.4949240605    0.0392981686
C147       C    0.1501997047    0.4945324152   -0.0456115361
N148       N    0.2476074418    0.4941726531   -0.1246698481
C149       C    0.2731287482    0.4938516916   -0.1761490053
C150       C    0.2220671599    0.4934759783   -0.1778777209
C151       C    0.2318221987    0.4926518640   -0.2635336729
C152       C    0.2630583104    0.4924369054   -0.2624430351
C153       C    0.3027919687    0.4941190663    0.1546139245
C154       C    0.3046205990    0.4950516134   -0.1508686309
C155       C    0.1912680405    0.4941205286   -0.1546392729
C156       C    0.1903765807    0.4950531114    0.1509171908
H157       H    0.3662758841    0.5004007927    0.0883406044
H158       H    0.3673884474    0.5011139791   -0.0804269218
H159       H    0.2137773880    0.4927806374    0.3148098765
H160       H    0.2750807010    0.4907827785    0.3167504784
H161       H    0.1300092731    0.4942600405    0.0806901091
H162       H    0.1303612387    0.4934859598   -0.0881920857
H163       H    0.2163571607    0.4922103756   -0.3168558134
H164       H    0.2783948140    0.4916380198   -0.3146811660
Co165     Co    0.2472703502    0.4946008956    0.0000056416
N166       N    0.2014064568    0.6977238255   -0.0014891196
C167       C    0.1818763740    0.6792674837   -0.0709689675
C168       C    0.1809962708    0.6789096472    0.0666915156
C169       C    0.1485156157    0.6490659856   -0.0456666463
C170       C    0.1479574475    0.6488694801    0.0391921505
N171       N    0.2480713788    0.7443773880   -0.1246551406
C172       C    0.2233237722    0.7187282218   -0.1778195439
C173       C    0.2738610650    0.7699474271   -0.1761750516
C174       C    0.2650170890    0.7600482230   -0.2624753749
C175       C    0.2341549955    0.7282347004   -0.2634533813
N176       N    0.2928009029    0.7907118846    0.0015970471
C177       C    0.3124588924    0.8103566902   -0.0666518027
C178       C    0.3121326352    0.8094770530    0.0710639586
C179       C    0.3445748284    0.8415971983   -0.0392566468
C180       C    0.3443977572    0.8410285121    0.0456530826
N181       N    0.2469821352    0.7432548152    0.1247081250
C182       C    0.2214583240    0.7174105003    0.1761864432
C183       C    0.2725233953    0.7680990133    0.1779169167
C184       C    0.2627664278    0.7575181554    0.2635726027
C185       C    0.2315281238    0.7260654407    0.2624809242
C186       C    0.1917974529    0.6880174915   -0.1545775123
C187       C    0.1899647806    0.6871173325    0.1509049091
C188       C    0.3033250586    0.7995446564    0.1546794612
C189       C    0.3042207561    0.8013728565   -0.1508770454
H190       H    0.1283091116    0.6308115221   -0.0883068302
H191       H    0.1271943358    0.6304099020    0.0804606031
H192       H    0.2808201713    0.7757003554   -0.3147703467
H193       H    0.2195123335    0.7123958439   -0.3167128686
H194       H    0.3645912300    0.8609492847   -0.0806478580
H195       H    0.3642368960    0.8598209299    0.0882343853
H196       H    0.2782317760    0.7725417820    0.3168953013
H197       H    0.2161897486    0.7099284973    0.3147185981
Co198     Co    0.2473209607    0.7440218476    0.0000326131
O199       O    0.9444119657    0.4105338085    0.6361132836
O200       O    0.9025821881    0.4210724779    0.5444700736
C201       C    0.9102910644    0.4046903096    0.6118696066
O202       O    1.0402439921    0.5731661749    0.6470606860
O203       O    1.0856746803    0.5644253588    0.5653822206
C204       C    1.0752097060    0.5794326702    0.6307014164
O205       O    0.9444388406    0.5252747223    0.6361179401
O206       O    0.9025943530    0.4729064511    0.5444710120
C207       C    0.9103128163    0.4970033702    0.6118670976
O208       O    1.0402171172    0.4584252611    0.6470560295
O209       O    1.0856625154    0.5125913856    0.5653812822
C210       C    1.0751879541    0.4871196096    0.6307039254
Zr211     Zr    0.9934001448    0.4538934714    0.5894939106
O212       O    0.9906737562    0.4556654783    0.7205636346
O213       O    0.9980427820    0.4071418749    0.5871801439
Zr214     Zr    0.9934182868    0.5308864921    0.5894918180
O215       O    0.9855411678    0.5268351509    0.7215653469
O216       O    0.9996012979    0.5825357141    0.5794034242
O217       O    0.9607031841    0.4760408963    0.6028060870
O218       O    1.0254074691    0.5083855266    0.6101965304
O219       O    1.0467049217    0.4616691865    0.3352424701
O220       O    1.0885440847    0.5140347961    0.4268887900
C221       C    1.0808309460    0.4899405387    0.3594933125
O222       O    0.9509266451    0.5285186478    0.3243043807
O223       O    0.9054759224    0.4743498616    0.4059785198
C224       C    0.9159558082    0.4998242992    0.3406564848
O225       O    1.0467317966    0.5764101004    0.3352471266
O226       O    1.0885562497    0.5658687693    0.4268897284
C227       C    1.0808526979    0.5822535992    0.3594908036
O228       O    0.9508997702    0.4137777339    0.3242997242
O229       O    0.9054637574    0.4225158883    0.4059775814
C230       C    0.9159340563    0.4075112386    0.3406589937
Zr231     Zr    0.9977201509    0.4560547550    0.3818679840
O232       O    0.9957497110    0.4558326980    0.2485367128
O233       O    0.9964354839    0.4065602591    0.3899603333
Zr234     Zr    0.9977382930    0.5330477757    0.3818658914
O235       O    1.0019689151    0.5344895458    0.2498395484
O236       O    0.9956066959    0.5809583854    0.3930345035
Zr237     Zr    0.9424512179    0.4669177902    0.4796128286
Zr238     Zr    1.0486925444    0.5200261186    0.4917475815
O239       O    1.0304352537    0.5109003508    0.3685537150
O240       O    0.9657309686    0.4785557206    0.3611632716
O241       O    1.0281929988    0.4649977350    0.4894091596
O242       O    0.9629454390    0.5219435121    0.4819506424
O243       O    0.9629243084    0.4323709676    0.4819542505
O244       O    1.0282141294    0.5545702795    0.4894055515
H245       H    1.0397901534    0.5155770247    0.6707898704
H246       H    0.9467850415    0.5352645255    0.4801045464
H247       H    1.0472652520    0.5193115702    0.3115254490
H248       H    0.9467538616    0.4028882858    0.4801075574
H249       H    0.9763898346    0.5805637242    0.5661656027
H250       H    1.0169242633    0.5986597190    0.4241208049
H251       H    0.9842190575    0.5107036811    0.2282947500
H252       H    1.0159195885    0.4780218546    0.2263338847
H253       H    1.0163264928    0.4096283375    0.4260925859
H254       H    0.9786832647    0.3886017187    0.5530294517
H255       H    0.9704947519    0.4590609817    0.7365683253
H256       H    1.0043656679    0.5237851520    0.7483548678
H257       H    1.0005032852    0.4369122718    0.2286357319
H258       H    0.9928731690    0.3970039053    0.6444501472
H259       H    0.9900243609    0.5503420262    0.7420743164
H260       H    0.9987463330    0.5911638609    0.3361210655
O261       O    0.4660375840    0.4105277638    0.3639175667
O262       O    0.5184019229    0.4210473194    0.4555641758
C263       C    0.4943051553    0.4046725668    0.3881646977
O264       O    0.5329429222    0.5731655467    0.3529535628
O265       O    0.4787726450    0.5644402306    0.4346282092
C266       C    0.5042528610    0.5794428936    0.3693092798
O267       O    0.5808135154    0.5252483382    0.3639074928
O268       O    0.5702516910    0.4728721043    0.4555607901
C269       C    0.5866462584    0.4969692634    0.3881628482
O270       O    0.4181669908    0.4584449723    0.3529636368
O271       O    0.4269228770    0.5126154457    0.4346315949
C272       C    0.4119117579    0.4871461970    0.3693111293
Zr273     Zr    0.4604399353    0.4538958726    0.4105303305
O274       O    0.4649421979    0.4556700557    0.2794607765
O275       O    0.4090212487    0.4071541521    0.4128458710
Zr276     Zr    0.5374563447    0.5308752451    0.4105287879
O277       O    0.5412819612    0.5268253135    0.2784561837
O278       O    0.5829512488    0.5825172328    0.4206141683
O279       O    0.5152908125    0.4760281305    0.3972201544
O280       O    0.4829602702    0.5083901556    0.3898221576
O281       O    0.4149179356    0.4616823981    0.6647764394
O282       O    0.4254824205    0.5140559689    0.5731237509
C283       C    0.4090851926    0.4899614729    0.6405210840
O284       O    0.5775644602    0.5284857640    0.6757202954
O285       O    0.5688112345    0.4743126275    0.5940529461
C286       C    0.5838196931    0.4997845393    0.6593728029
O287       O    0.5296938670    0.5764029725    0.6647663655
O288       O    0.4773321886    0.5658807538    0.5731203652
C289       C    0.5014262957    0.5822581695    0.6405192345
O290       O    0.4627885288    0.4137651896    0.6757303694
O291       O    0.5169614665    0.4224878426    0.5940563318
C292       C    0.4914785900    0.4074878426    0.6593746524
Zr293     Zr    0.4582777668    0.4560528281    0.6181557531
O294       O    0.4600222271    0.4558265954    0.7514872186
O295       O    0.4100412239    0.4065668680    0.6100658592
Zr296     Zr    0.5352941762    0.5330322006    0.6181542105
O297       O    0.5325034324    0.5344717324    0.7501800917
O298       O    0.5853621357    0.5809338524    0.6069835360
Zr299     Zr    0.5244083239    0.4668969232    0.5204155437
Zr300     Zr    0.4713231271    0.5200338131    0.5082683885
O301       O    0.4804432990    0.5108999427    0.6314643865
O302       O    0.5127738413    0.4785379176    0.6388623834
O303       O    0.4367609124    0.4650078604    0.5106113168
O304       O    0.5589731991    0.5219202128    0.5180732242
O305       O    0.4693734690    0.4323635464    0.5180738452
O306       O    0.5263606425    0.5545645267    0.5106106958
H307       H    0.4757770831    0.5155870748    0.3292271384
H308       H    0.5884588810    0.5352330865    0.5199201968
H309       H    0.4720305645    0.5193141320    0.6884906881
H310       H    0.4560424162    0.4028803125    0.5199234358
H311       H    0.6041851990    0.5805370156    0.4338542450
H312       H    0.5817600352    0.5986404231    0.5758944135
H313       H    0.5264508899    0.5106832259    0.7717276660
H314       H    0.4620564763    0.4780183809    0.7736871208
H315       H    0.3932244118    0.4096424061    0.5739316090
H316       H    0.4098262918    0.3886095207    0.4469992415
H317       H    0.4885153728    0.4590582261    0.2634578052
H318       H    0.5194098496    0.5237832350    0.2516650532
H319       H    0.4363383491    0.4369106848    0.7713886497
H320       H    0.4040479905    0.3970176585    0.3555768276
H321       H    0.5603196486    0.5503301500    0.2579456871
H322       H    0.5924325612    0.5911371297    0.6638962001
O323       O    0.5808149923    1.0469470170    0.3639730933
O324       O    0.5702501339    1.0887560582    0.4556153750
C325       C    0.5866438328    1.0810583101    0.3882180653
O326       O    0.4181702535    0.9510729558    0.3530012727
O327       O    0.4269328340    0.9056615426    0.4346803620
C328       C    0.4119173800    0.9161165073    0.3693591756
O329       O    0.4660334921    1.0468664808    0.3639521293
O330       O    0.5183978259    1.0887196519    0.4556070698
C331       C    0.4942981190    1.0809933858    0.3882074543
O332       O    0.5329517536    0.9511534920    0.3530222367
O333       O    0.4787851421    0.9056979489    0.4346886672
C334       C    0.5042630938    0.9161814317    0.3693697866
Zr335     Zr    0.5374614300    0.9979553849    0.4105856371
O336       O    0.5356916595    1.0006814127    0.2795156981
O337       O    0.5842316673    0.9933362339    0.4129059849
Zr338     Zr    0.4604411751    0.9979012352    0.4105767871
O339       O    0.4644944356    1.0057789054    0.2785039410
O340       O    0.4087762517    0.9916961430    0.4206577562
O341       O    0.5152912946    1.0306305590    0.3972707581
O342       O    0.4829657193    0.9659341263    0.3898748370
O343       O    0.5296998694    0.9446630571    0.6648352471
O344       O    0.4773381957    0.9028152100    0.5731809153
C345       C    0.5014352425    0.9105361522    0.6405799221
O346       O    0.4627816079    1.0403760459    0.6757651397
O347       O    0.5169508795    1.0858369130    0.5940993178
C348       C    0.4914702677    1.0753481062    0.6594175898
O349       O    0.4149183692    0.9445825210    0.6648142831
O350       O    0.4254858877    0.9027788037    0.5731726100
C351       C    0.4090895287    0.9104712278    0.6405693111
O352       O    0.5775631080    1.0404565821    0.6757861037
O353       O    0.5688031876    1.0858733193    0.5941076230
C354       C    0.5838159815    1.0754130306    0.6594282008
Zr355     Zr    0.5352948465    0.9936336266    0.6182111980
O356       O    0.5355118503    0.9956020152    0.7515425277
O357       O    0.5848065097    0.9949410788    0.6101259003
Zr358     Zr    0.4582745915    0.9935794770    0.6182023480
O359       O    0.4568301214    0.9893482342    0.7502284287
O360       O    0.4103463851    0.9956880312    0.6070269558
Zr361     Zr    0.5244052013    1.0488789857    0.5204655618
Zr362     Zr    0.4713281602    0.9426505522    0.5083218146
O363       O    0.4804447270    0.9609043028    0.6315172269
O364       O    0.5127703023    1.0256007356    0.6389131480
O365       O    0.5263663518    0.9631685568    0.5106683364
O366       O    0.4693696697    1.0283663051    0.5181196486
O367       O    0.5589738981    1.0284293264    0.5181287710
O368       O    0.4367621235    0.9631055354    0.5106592140
H369       H    0.4757803176    0.9515538311    0.3292802790
H370       H    0.4560363254    1.0445147317    0.5199640715
H371       H    0.4720366032    0.9440757032    0.6885440685
H372       H    0.5884593896    1.0446078205    0.5199798743
H373       H    0.4107376639    1.0149001686    0.4338961740
H374       H    0.3926497414    0.9743700687    0.5759378484
H375       H    0.4806154194    1.0071027001    0.7717768492
H376       H    0.5133235761    0.9754286545    0.7737419277
H377       H    0.5817477909    0.9750560700    0.5739929409
H378       H    0.6027682496    1.0126971981    0.4470595756
H379       H    0.5322860211    1.0208518618    0.2635107996
H380       H    0.4675551649    0.9869627875    0.2517145973
H381       H    0.5544405663    0.9908587560    0.7714461330
H382       H    0.5943726142    0.9985093854    0.3556374927
H383       H    0.4409819875    1.0012865278    0.2579915696
H384       H    0.4001369702    0.9925441093    0.6639389007
C615       C    0.3827723950    0.8830926637   -0.3070935253
C616       C    0.3600896593    0.8895151787   -0.2569892508
C617       C    0.3344209455    0.8629422098   -0.2060049957
C618       C    0.3305378897    0.8287514206   -0.2032142089
C619       C    0.3533543598    0.8223253480   -0.2534078140
C620       C    0.3789158478    0.8490463249   -0.3043175575
H621       H    0.3634528712    0.9160920207   -0.2595721603
H622       H    0.3170122201    0.8683926516   -0.1674204800
H623       H    0.3506933820    0.7959884027   -0.2520392378
H624       H    0.3966280145    0.8444022785   -0.3437219433
C605       C    0.3834881938    0.8855983012    0.3131565870
C606       C    0.3543608132    0.8555863108    0.3483693867
C607       C    0.3289147342    0.8283036306    0.2984624894
C608       C    0.3317542447    0.8300628625    0.2108820499
C609       C    0.3610322625    0.8601653565    0.1755417935
C610       C    0.3863267812    0.8873554230    0.2259370450
H611       H    0.3525524905    0.8545239284    0.4161521887
H612       H    0.3064412319    0.8051501715    0.3268680749
H613       H    0.3636272257    0.8619657588    0.1078182469
H614       H    0.4090119709    0.9108536904    0.1994433039
C595       C    0.1612727189    0.6595880649   -0.2107952862
C596       C    0.1458856293    0.6231167912   -0.1940750195
C597       C    0.1186290290    0.5976608270   -0.2440220494
C598       C    0.1057344401    0.6078620968   -0.3130808097
C599       C    0.1212280438    0.6444759595   -0.3299487240
C600       C    0.1484408392    0.6697558477   -0.2795750738
H601       H    0.1561807050    0.6156027043   -0.1406473489
H602       H    0.1069724670    0.5694141078   -0.2301536562
H603       H    0.1115445853    0.6528401116   -0.3831571550
H604       H    0.1605540903    0.6981579964   -0.2916729716
C585       C    0.1082367752    0.6085714598    0.3071415852
C586       C    0.1431808820    0.6295082981    0.3363337934
C587       C    0.1699189268    0.6551302588    0.2855946465
C588       C    0.1625807033    0.6607994720    0.2032541275
C589       C    0.1274830127    0.6398217677    0.1740024985
C590       C    0.1009187773    0.6142151699    0.2251456267
H591       H    0.1484559606    0.6249176637    0.4001817662
H592       H    0.1969436392    0.6711870664    0.3092954849
H593       H    0.1213438898    0.6438501023    0.1103732744
H594       H    0.0737051008    0.5977006677    0.2032215887
C575       C    0.3308488022    0.4937736183   -0.2032449697
C576       C    0.3654561779    0.5055227540   -0.1742194236
C577       C    0.3910361387    0.5043047568   -0.2249025573
C578       C    0.3828569894    0.4912394680   -0.3071025772
C579       C    0.3481299022    0.4795034028   -0.3362858548
C580       C    0.3226965671    0.4807658717   -0.2851102691
H581       H    0.3714437837    0.5156537792   -0.1106428698
H582       H    0.4178209120    0.5135598264   -0.2013541943
H583       H    0.3413395481    0.4692855178   -0.3997716044
H584       H    0.2957011923    0.4716349228   -0.3067375420
C565       C    0.3313567350    0.4922937477    0.2108161544
C566       C    0.3237417326    0.4609081685    0.2527416266
C567       C    0.3491603909    0.4591489636    0.3029140698
C568       C    0.3833469917    0.4889715156    0.3131088995
C569       C    0.3909682856    0.5204983485    0.2711324897
C570       C    0.3653990328    0.5220005321    0.2209676945
H571       H    0.2971789254    0.4380907406    0.2445013689
H572       H    0.3427908629    0.4345389409    0.3350911330
H573       H    0.4173202068    0.5438372356    0.2783004905
H574       H    0.3709791183    0.5461546379    0.1878594339
C555       C    0.1608874573    0.4922882419   -0.2108194413
C556       C    0.1268131413    0.4807883291   -0.1784823338
C557       C    0.0996149867    0.4791352798   -0.2283936486
C558       C    0.1055685372    0.4889518964   -0.3131159061
C559       C    0.1397613401    0.5004367572   -0.3456111684
C560       C    0.1668234154    0.5020608485   -0.2951960355
H561       H    0.1225532676    0.4731816962   -0.1129603443
H562       H    0.0732734758    0.4701192727   -0.2022544918
H563       H    0.1448358206    0.5081585471   -0.4110851976
H564       H    0.1934274719    0.5110381017   -0.3194040582
C545       C    0.1628778261    0.4937697250    0.2032751291
C546       C    0.1387604614    0.5036384558    0.1727895046
C547       C    0.1119551381    0.5024066140    0.2234710940
C548       C    0.1083297006    0.4912239251    0.3071353742
C549       C    0.1325835687    0.4813770553    0.3377773494
C550       C    0.1592779187    0.4826372692    0.2865982326
H551       H    0.1419352266    0.5123283541    0.1080784304
H552       H    0.0934367623    0.5101859009    0.1987749666
H553       H    0.1301423241    0.4726309040    0.4024105118
H554       H    0.1781138806    0.4749517433    0.3093617447
C535       C    0.4984191011    0.6613997198    0.7950558001
C536       C    0.5195009981    0.6464813471    0.8164217653
C537       C    0.5205425146    0.6206674454    0.7662890782
C538       C    0.5004174609    0.6088080802    0.6923621919
C539       C    0.4793019399    0.6238334614    0.6708412098
C540       C    0.4783779527    0.6495987970    0.7214282062
H541       H    0.5350015638    0.6559689018    0.8736025697
H542       H    0.5370882173    0.6093574448    0.7838098691
H543       H    0.4635330975    0.6149366731    0.6138254095
H544       H    0.4620505511    0.6613288897    0.7057375343
C525       C    0.5022181446    0.6077191134    1.3125663967
C526       C    0.5252575028    0.6442434844    1.3248522754
C527       C    0.5235542813    0.6695893029    1.2742910694
C528       C    0.4985123058    0.6592187285    1.2092203110
C529       C    0.4753410624    0.6225506254    1.1969863394
C530       C    0.4772717801    0.5973826379    1.2477760671
H531       H    0.5444126400    0.6518871969    1.3755293369
H532       H    0.5416594427    0.6978791851    1.2847256390
H533       H    0.4558009892    0.6140560956    1.1468420522
H534       H    0.4596270844    0.5689426077    1.2387884830
C515       C    0.5001897735    0.8828576661    0.6924308496
C516       C    0.5146614085    0.8902012626    0.7730565500
C517       C    0.5134885114    0.8634036360    0.8236494938
C518       C    0.4977232730    0.8280437736    0.7951153374
C519       C    0.4832514952    0.8206861434    0.7141138440
C520       C    0.4844925057    0.8476462957    0.6639902486
H521       H    0.5268581010    0.9176660050    0.7942245179
H522       H    0.5248797751    0.8695791826    0.8861670578
H523       H    0.4709227003    0.7934409039    0.6910533037
H524       H    0.4732693488    0.8423077217    0.6013783606
C505       C    0.4992032839    0.8310151257    1.2092165335
C506       C    0.5063643327    0.8321927754    1.2948183704
C507       C    0.5080182489    0.8591209203    1.3457496116
C508       C    0.5024702908    0.8860051188    1.3126239336
C509       C    0.4952185366    0.8847841607    1.2267100233
C510       C    0.4936709540    0.8577820767    1.1762102743
H511       H    0.5104954203    0.8111864068    1.3196402212
H512       H    0.5136020582    0.8596283280    1.4121862372
H513       H    0.4908771860    0.9054085738    1.2000252030
H514       H    0.4882439183    0.8565996348    1.1096208314
C495       C    0.8340729096    0.3252022722    0.1976757102
C496       C    0.8432881345    0.3608389281    0.1864146170
C497       C    0.8702635555    0.3880829709    0.2334977777
C498       C    0.8891620550    0.3805927817    0.2938975104
C499       C    0.8799507452    0.3448207102    0.3050937284
C500       C    0.8528931071    0.3177347286    0.2578135921
H501       H    0.8285345341    0.3662587885    0.1393469344
H502       H    0.8770970129    0.4156480969    0.2239187105
H503       H    0.8943029453    0.3385477865    0.3516417826
H504       H    0.8453875703    0.2899457548    0.2660716865
C485       C    0.8830639884    0.3768180399   -0.3274801026
C486       C    0.8602310617    0.3416600298   -0.3530586771
C487       C    0.8355138014    0.3162842683   -0.2982462204
C488       C    0.8327006605    0.3252612637   -0.2152921285
C489       C    0.8555821166    0.3605751801   -0.1896619943
C490       C    0.8802648311    0.3857680982   -0.2448735108
H491       H    0.8626209686    0.3351141918   -0.4174162433
H492       H    0.8179546961    0.2890712410   -0.3191705722
H493       H    0.8537731086    0.3679744112   -0.1256172277
H494       H    0.8982271981    0.4131266178   -0.2257940131
C475       C    0.6107337560    0.1021793492   -0.2938136998
C476       C    0.6057632284    0.1067465344   -0.2092465524
C477       C    0.6328587380    0.1337018260   -0.1618061947
C478       C    0.6661286984    0.1572626056   -0.1975887231
C479       C    0.6710944211    0.1527142809   -0.2825289779
C480       C    0.6438625164    0.1256430858   -0.3294714521
H481       H    0.5798817594    0.0884126113   -0.1824521605
H482       H    0.6285397419    0.1368857621   -0.0961425369
H483       H    0.6967043386    0.1707133957   -0.3112153850
H484       H    0.6473866469    0.1217218039   -0.3951087234
C465       C    0.6660707385    0.1586350217    0.2153268629
C466       C    0.6367885171    0.1615733754    0.2412713296
C467       C    0.6114307651    0.1369314170    0.2962363150
C468       C    0.6145184027    0.1082835614    0.3275425566
C469       C    0.6439516719    0.1053723466    0.3016068191
C470       C    0.6691564292    0.1301107665    0.2465047403
H471       H    0.6347885273    0.1839043445    0.2167791094
H472       H    0.5888343157    0.1396207172    0.3157933939
H473       H    0.6467393708    0.0833341222    0.3252100401
H474       H    0.6919600406    0.1280954365    0.2256440625
C455       C    0.4912805299    0.3803394530    0.7056715871
C456       C    0.5173237849    0.3706576443    0.6936465903
C457       C    0.5172447669    0.3433719485    0.7401383081
C458       C    0.4908740339    0.3246204430    0.8006908276
C459       C    0.4646923720    0.3343006518    0.8126538468
C460       C    0.4650107153    0.3616657978    0.7659618026
H461       H    0.5374867789    0.3853030944    0.6464687696
H462       H    0.5376846958    0.3361769950    0.7299684697
H463       H    0.4440867754    0.3200679420    0.8593304048
H464       H    0.4450237951    0.3695336539    0.7748156822
C445       C    0.4936046827    0.3769423681    1.3269631236
C446       C    0.4719258517    0.3403749161    1.3416785733
C447       C    0.4711848845    0.3151316982    1.2863153618
C448       C    0.4923091234    0.3256539731    1.2137677389
C449       C    0.5141202154    0.3623666856    1.1990768464
C450       C    0.5146500023    0.3874300437    1.2547251324
H451       H    0.4558140382    0.3326158684    1.3981180744
H452       H    0.4541861876    0.2868067205    1.2987265666
H453       H    0.5306322100    0.3709777953    1.1431656718
H454       H    0.5312685425    0.4158996139    1.2439585356
C435       C    0.4915044773    0.1024266477    0.7057322864
C436       C    0.4644331804    0.0951936334    0.7634641379
C437       C    0.4643735036    0.1223441438    0.8102342301
C438       C    0.4915746579    0.1579780726    0.8007465397
C439       C    0.5187178549    0.1652445367    0.7426767581
C440       C    0.5185948596    0.1379127641    0.6962589973
H441       H    0.4435189014    0.0675471364    0.7699876954
H442       H    0.4431137635    0.1162542220    0.8548251885
H443       H    0.5399994436    0.1926917839    0.7345850503
H444       H    0.5394955770    0.1431277924    0.6514096979
C425       C    0.4933571138    0.1079060254    1.3269859521
C426       C    0.5203472398    0.1256833782    1.2677051184
C427       C    0.5195900320    0.1500842874    1.2120346499
C428       C    0.4916171957    0.1576674834    1.2137874232
C429       C    0.4645544182    0.1398651294    1.2734039717
C430       C    0.4654982226    0.1154568050    1.3287565512
H431       H    0.5418614268    0.1196456067    1.2672073695
H432       H    0.5407982292    0.1636798858    1.1663610520
H433       H    0.4426822563    0.1454073990    1.2755860965
H434       H    0.4446721979    0.1013842633    1.3749255560
C415       C    0.6106432231    0.4997225281   -0.2938513366
C416       C    0.6046597766    0.4694911737   -0.2489551810
C417       C    0.6316422906    0.4692988557   -0.2017444172
C418       C    0.6658184731    0.4995949727   -0.1976347018
C419       C    0.6718044641    0.5299652169   -0.2425922372
C420       C    0.6446749685    0.5299007825   -0.2897599287
H421       H    0.5780903273    0.4462951308   -0.2524912433
H422       H    0.6265304857    0.4455716589   -0.1671898542
H423       H    0.6981235063    0.5536497784   -0.2401375531
H424       H    0.6489745773    0.5531426915   -0.3251196867
C405       C    0.6664546699    0.4995570611    0.2153067420
C406       C    0.6343969425    0.4959897390    0.1859082552
C407       C    0.6089142861    0.4951266959    0.2406837999
C408       C    0.6146641481    0.4978777470    0.3274792282
C409       C    0.6468772825    0.5015226458    0.3569772117
C410       C    0.6721914787    0.5023034215    0.3017425748
H411       H    0.6303462580    0.4939953754    0.1186597800
H412       H    0.5841393370    0.4923524813    0.2167679470
H413       H    0.6517507651    0.5036647010    0.4240146252
H414       H    0.6971446103    0.5049520619    0.3237070429
C395       C    0.8337680005    0.4996058987    0.1976610266
C396       C    0.8681163005    0.5293886645    0.1991250844
C397       C    0.8953113642    0.5295897386    0.2462691855
C398       C    0.8890772379    0.4997528739    0.2938914769
C399       C    0.8546080878    0.4698305003    0.2922993121
C400       C    0.8275524564    0.4698848459    0.2450707363
H401       H    0.8725892419    0.5522283543    0.1618327909
H402       H    0.9218677540    0.5529640991    0.2466768053
H403       H    0.8493147194    0.4465057605    0.3288603229
H404       H    0.8007397102    0.4469924151    0.2435541235
C385       C    0.8832138046    0.4979031437   -0.3274823049
C386       C    0.8488992066    0.4684832199   -0.3186472198
C387       C    0.8242460931    0.4691700461   -0.2636765798
C388       C    0.8330950188    0.4995672470   -0.2153108969
C389       C    0.8675254136    0.5291247155   -0.2242958360
C390       C    0.8920326568    0.5281820159   -0.2793335945
H391       H    0.8423821823    0.4452020091   -0.3565928508
H392       H    0.7976765176    0.4460669285   -0.2575994069
H393       H    0.8748263224    0.5528742902   -0.1872752152
H394       H    0.9187955906    0.5507849246   -0.2866365646
loop_
_geom_bond_atom_site_label_1
_geom_bond_atom_site_label_2
_geom_bond_distance
_geom_bond_site_symmetry_2
_ccdc_geom_bond_type
