data_ftw_v1-tetracenter_v2-12c_Zr_1_Ch_dummy_1-tetraedgenobond
_audit_creation_date              2024-12-10
_audit_creation_method            'tobacco_3.0'
_symmetry_space_group_name_H-M    'P1'
_symmetry_Int_Tables_number       1
_symmetry_cell_setting            triclinic
loop_
_symmetry_equiv_pos_as_xyz
  x,y,z
_cell_length_a                    19.628359963442183
_cell_length_b                    19.629348549646142
_cell_length_c                    19.630337080637567
_cell_angle_alpha                 89.99803672281423
_cell_angle_beta                  90.00196322186494
_cell_angle_gamma                 89.99803681694921
loop_
_atom_site_label
_atom_site_type_symbol
_atom_site_fract_x
_atom_site_fract_y
_atom_site_fract_z
N1         N   -0.0007052044    0.4999952191    0.3982442378
C2         C    0.0013473394    0.4438659685    0.3556424406
C3         C    0.0023457601    0.5560997073    0.3556427744
C4         C    0.0073867057    0.4653431533    0.2857625486
C5         C    0.0080780990    0.5345278880    0.2857720754
N6         N   -0.0007265681    0.3983431382    0.4999858168
C7         C   -0.0024502838    0.3556802712    0.4438522135
C8         C   -0.0011462767    0.3556573078    0.5561427181
C9         C   -0.0031636435    0.2855587948    0.5346055265
C10        C   -0.0049827420    0.2856014336    0.4654417979
N11        N    0.0023420265    0.5000402720    0.6017155063
C12        C    0.0023169711    0.4438789858    0.6444033423
C13        C    0.0012590617    0.5561574520    0.6444392341
C14        C    0.0006436415    0.4653619506    0.7145798251
C15        C   -0.0001050177    0.5345881515    0.7145994515
N16        N   -0.0007902924    0.6016471397    0.5000199040
C17        C   -0.0014031982    0.6442992253    0.4438531461
C18        C   -0.0021226863    0.6443464844    0.5561409467
C19        C   -0.0036978071    0.7144433247    0.5345507477
C20        C   -0.0041079361    0.7143934420    0.4653691350
C21        C   -0.0008913450    0.3754604136    0.3754132974
C22        C    0.0008913450    0.6245181674    0.3754297219
C23        C   -0.0008913450    0.6245698054    0.6245916971
C24        C    0.0008913450    0.3754516135    0.6245652836
H25        H    0.0111183067    0.4310991699    0.2429037843
H26        H    0.0124816517    0.5686941889    0.2429056284
H27        H   -0.0034520980    0.2425078525    0.5687929344
H28        H   -0.0072696406    0.2425942356    0.4312808341
H29        H   -0.0006261914    0.4310934810    0.7576064518
H30        H   -0.0021059046    0.5687817704    0.7576461454
H31        H   -0.0045421379    0.7575020963    0.5687200359
H32        H   -0.0056346902    0.7573980302    0.4311586693
Co33      Co    0.0000283217    0.5000000927    0.5000029987
D88        D   -0.0410440187    0.9956406376    1.1508172051
D89        D   -0.0206219020    0.9371340290    1.1140706288
D90        D    0.0334586165    0.9745189861    1.0846036089
D91        D    0.0130364998    1.0330255947    1.1213501855
D92        D   -0.0093308359    0.9567702959    1.1596995080
D93        D    0.0447496826    0.9941552529    1.1302324884
D94        D    0.0017454337    1.0133893278    1.0757213062
D95        D   -0.0523350848    0.9760043708    1.1051883258
Zr42      Zr    0.0000028563    0.9999984919    1.1264228085
D96        D   -0.0043558301    0.8491587515    1.0410353471
D97        D   -0.0628657569    0.8859108055    1.0206131446
D98        D   -0.0254793390    0.9153773260    0.9665360772
D99        D    0.0330305877    0.8786252718    0.9869582797
D100       D   -0.0432281606    0.8402785014    1.0093260509
D101       D   -0.0058417427    0.8697450216    0.9552489834
D102       D    0.0133929914    0.9242575759    0.9982453735
D103       D   -0.0239934264    0.8947910557    1.0523224409
Zr69      Zr    0.0000019065    0.8735543185    0.9999910416
D104       D   -0.0067923663    1.1539113426    1.0446702920
D105       D    0.0027750198    1.1622554378    0.9737552701
D106       D    0.0256872333    1.0941265980    0.9688332553
D107       D    0.0161198472    1.0857825029    1.0397482772
D108       D   -0.0358266652    1.1471352723    1.0033621713
D109       D   -0.0129144518    1.0790064325    0.9984401565
D110       D    0.0547215322    1.1009026684    1.0101413760
D111       D    0.0318093190    1.1690315082    1.0150633908
Zr70      Zr   -0.0000018932    1.1264409587    0.9999806700
D112       D   -0.1508458478    0.9956420092    1.0410276215
D113       D   -0.1552939035    0.9882413435    0.9695047383
D114       D   -0.0846252034    0.9745204611    0.9665329579
D115       D   -0.0801771478    0.9819211268    1.0380558411
D116       D   -0.1597272097    0.9567721746    1.0093199068
D117       D   -0.0890585097    0.9430512921    1.0063481265
D118       D   -0.0757438418    1.0133902958    0.9982406726
D119       D   -0.1464125418    1.0271111782    1.0012124529
Zr71      Zr   -0.1264496818    1.0000000715    0.9999843727
D120       D    0.1539205118    1.0446878020    1.0067762117
D121       D    0.0966831209    1.0099648022    1.0334010784
D122       D    0.0941343005    0.9688450441    0.9743014819
D123       D    0.1513716915    1.0035680440    0.9476766149
D124       D    0.1471450953    1.0033779899    1.0358083720
D125       D    0.1445962749    0.9622582316    0.9767087755
D126       D    0.1009097171    1.0101548563    0.9452693215
D127       D    0.1034585374    1.0512746146    1.0043689181
Zr72      Zr    0.1264496951    0.9999952057    0.9999873389
D133       D    0.0015408829    0.9870844895    0.9209818263
D134       D   -0.0101631297    1.0547172098    0.8990825597
D135       D   -0.0150898947    1.0318066981    0.8309585067
D128       D   -0.0446986900    0.9932067342    0.8460800891
D129       D    0.0262229133    1.0027739412    0.8377361908
D130       D    0.0311496782    1.0256844532    0.9058602439
D131       D   -0.0397719250    1.0161172462    0.9142041421
D132       D   -0.0033858820    0.9641739776    0.8528577733
Zr73      Zr   -0.0000028429    0.9999967853    0.8735489031
H49        H   -0.0949101147    0.9050911990    1.0948927620
O50        O   -0.0591570695    0.9408428572    1.0591409280
H51        H    0.0949144060    1.0949053592    1.0948872033
O52        O    0.0591597493    1.0591532184    1.0591374633
H84        H   -0.0949172447    1.0949077305    0.9050767232
O85        O   -0.0591615136    1.0591546964    0.9408293959
H86        H    0.0949129801    0.9050862657    0.9050867346
O87        O    0.0591588606    0.9408397823    0.9408356360
O43        O    0.0591615269    0.9408405808    1.0591423156
O44        O   -0.0591588472    1.0591554949    1.0591360756
O74        O    0.0591570829    1.0591524200    0.9408307836
O75        O   -0.0591597359    0.9408420588    0.9408342483
O34        O   -0.0000004299    1.1798005143    1.1004759917
O41        O    0.0000025488    1.1005014233    1.1797748768
C45        C    0.0000012233    1.1619704851    1.1619428097
O35        O    0.0000049732    0.8201961194    1.1004907402
O40        O    0.0000055689    0.8994962807    1.1797831207
C46        C    0.0000060906    0.8380269783    1.1619560956
O36        O   -0.1005035743    1.0000007858    1.1797778199
O39        O   -0.1798089815    1.0000017764    1.1004812570
C47        C   -0.1619762542    1.0000018482    1.1619475529
O37        O    0.1005116919    0.9999969182    1.1797801775
O38        O    0.1798135248    0.9999948573    1.1004854749
C48        C    0.1619835681    0.9999956152    1.1619513524
O53        O    0.0000004432    0.8201947629    0.8994957199
O67        O   -0.0000025354    0.8994938539    0.8201968348
C76        C   -0.0000012100    0.8380247921    0.8380289019
O54        O   -0.0000049599    1.1797991578    0.8994809714
O68        O   -0.0000055555    1.1004989965    0.8201885909
C77        C   -0.0000060773    1.1619682990    0.8380156160
O55        O   -0.1798097364    0.8994985269    0.9999878688
O63        O   -0.1005049249    0.8201973749    0.9999920512
C78        C   -0.1619774708    0.8380290017    0.9999905990
O56        O    0.1798127699    0.8994916078    0.9999920866
O66        O    0.1005103413    0.8201935074    0.9999944088
C79        C    0.1619823515    0.8380227687    0.9999943985
O57        O    0.1798097498    1.1004967503    0.9999838428
O65        O    0.1005049382    1.1797979023    0.9999796604
C80        C    0.1619774842    1.1619662755    0.9999811126
O58        O   -0.1798127566    1.1005036695    0.9999796250
O64        O   -0.1005103280    1.1798017698    0.9999773027
C81        C   -0.1619823381    1.1619725085    0.9999773131
O59        O   -0.1005116786    0.9999983590    0.8201915340
O61        O   -0.1798135115    1.0000004199    0.8994862367
C82        C   -0.1619835548    0.9999996620    0.8380203592
O60        O    0.1005035876    0.9999944914    0.8201938916
O62        O    0.1798089949    0.9999935008    0.8994904545
C83        C    0.1619762675    0.9999934291    0.8380241587
N136       N    0.4999928471    0.9992924482    0.6017557623
C137       C    0.4438607696    1.0013448887    0.6443575597
C138       C    0.5561001611    1.0023432591    0.6443572256
C139       C    0.4653390362    1.0073839509    0.7142374516
C140       C    0.5345272554    1.0080753094    0.7142279246
N141       N    0.3983356463    0.9992710857    0.5000141836
C142       C    0.3556706307    0.9975474567    0.5561477870
C143       C    0.3556476659    0.9988513982    0.4438572824
C144       C    0.2855456224    0.9968341330    0.4653944742
C145       C    0.2855882635    0.9950151261    0.5345582028
N146       N    0.5000379020    1.0023395258    0.3982844939
C147       C    0.4438737871    1.0023144716    0.3555966580
C148       C    0.5561579082    1.0012566155    0.3555607659
C149       C    0.4653578338    1.0006412263    0.2854201751
C150       C    0.5345875213    0.9998926048    0.2854005486
N151       N    0.6016498873    0.9992073646    0.4999800958
C152       C    0.6443041211    0.9985944897    0.5561468536
C153       C    0.6443513824    0.9978750378    0.4438590530
C154       C    0.7144517532    0.9962999963    0.4654492519
C155       C    0.7144018681    0.9958898880    0.5346308646
C156       C    0.3754517694    0.9991063171    0.6245867030
C157       C    0.6245220671    1.0008889173    0.6245702779
C158       C    0.6245737073    0.9991063171    0.3754083027
C159       C    0.3754429685    1.0008889173    0.3754347169
H160       H    0.4310933283    1.0111153639    0.7570962160
H161       H    0.5686952772    1.0124786403    0.7570943715
H162       H    0.2424925119    0.9965456930    0.4312070664
H163       H    0.2425788995    0.9927283427    0.5687191667
H164       H    0.4310876382    0.9993714573    0.2423935485
H165       H    0.5687828622    0.9978918187    0.2423538546
H166       H    0.7575126934    0.9954557080    0.4312799635
H167       H    0.7574086223    0.9943632108    0.5688413301
Co168     Co    0.4999977208    1.0000259374    0.4999970014
N169       N    0.4999927966    0.3982226526    0.9992807226
C170       C    0.4438608597    0.3556185692    1.0013330597
C171       C    0.5561003195    0.3556188347    1.0023313799
C172       C    0.4653395400    0.2857347442    1.0073718178
C173       C    0.5345278066    0.2857442242    1.0080631415
N174       N    0.3983355946    0.4999693566    0.9992593611
C175       C    0.3556704608    0.4438330445    0.9975358190
C176       C    0.3556475856    0.5561291147    0.9988396948
C177       C    0.2855454038    0.5345909767    0.9968225311
C178       C    0.2855879201    0.4654238896    0.9950036159
N179       N    0.5000380608    0.6017039590    1.0023276467
C180       C    0.4438739444    0.6443939464    1.0023025938
C181       C    0.5561579930    0.6444299126    1.0012447909
C182       C    0.4653578765    0.7145740780    1.0006294327
C183       C    0.5345875127    0.7145937567    0.9998808489
N184       N    0.6016498312    0.5000034501    0.9991956432
C185       C    0.6443040229    0.4438339057    0.9985827992
C186       C    0.6443512352    0.5561274104    0.9978633836
C187       C    0.7144514979    0.5345362320    0.9962884213
C188       C    0.7144015846    0.4653511635    0.9958783337
C189       C    0.3754517061    0.3753905750    0.9990946008
C190       C    0.6245221260    0.3754068784    1.0008771112
C191       C    0.6245736446    0.6245815235    0.9990946008
C192       C    0.3754430280    0.6245549863    1.0008771112
H193       H    0.4310940877    0.2428735658    1.0111030429
H194       H    0.5686961300    0.2428753167    1.0124662506
H195       H    0.2424922735    0.5687801260    0.9965341057
H196       H    0.2425783992    0.4312613622    0.9927169476
H197       H    0.4310875940    0.7576029585    0.9993597277
H198       H    0.5687827167    0.7576427556    0.9978801636
H199       H    0.7575123804    0.5687072989    0.9954441756
H200       H    0.7574082340    0.4311390797    0.9943517334
Co201     Co    0.4999977208    0.4999864878    1.0000141748
C312       C   -0.2174449434    0.7825618945    0.9997577622
C313       C   -0.2841802160    0.7970772708    1.0202921197
C314       C   -0.3346228620    0.7469851618    1.0201149295
C315       C   -0.3199588828    0.6800486306    0.9993274376
C316       C   -0.2529284738    0.6654525852    0.9788277874
C317       C   -0.2028221571    0.7159014456    0.9790633247
H318       H   -0.2947571137    0.8489753976    1.0364244746
H319       H   -0.3862429460    0.7591369651    1.0362631718
H320       H   -0.2407062767    0.6138854293    0.9625364828
H321       H   -0.1508612494    0.7054031588    0.9630597991
C302       C   -0.3199959975    1.3199408973    1.0006432773
C303       C   -0.3344969755    1.2532126485    1.0212015550
C304       C   -0.2843957610    1.2027756623    1.0210235844
C305       C   -0.2174642146    1.2174384896    1.0002111469
C306       C   -0.2028825915    1.2844618728    0.9796874657
C307       C   -0.2533405131    1.3345625371    0.9799239915
H308       H   -0.3863913371    1.2426366073    1.0373530202
H309       H   -0.2965363919    1.1511610120    1.0371906146
H310       H   -0.1513194831    1.2966830741    0.9633766738
H311       H   -0.2428534821    1.3865179219    0.9639020897
C292       C    0.3199704076    0.6800294534    1.0006477182
C293       C    0.2791742033    0.6916000353    1.0579805094
C294       C    0.2288815212    0.7418464321    1.0580202360
C295       C    0.2174549719    0.7825483016    1.0002237915
C296       C    0.2583348580    0.7708457233    0.9426257247
C297       C    0.3085955334    0.7205486182    0.9430760568
H298       H    0.2884216629    0.6596356924    1.1022332776
H299       H    0.1976006685    0.7501489830    1.1030226446
H300       H    0.2501926512    0.8019359322    0.8974478176
H301       H    0.3407723883    0.7111507967    0.8990058568
C282       C    0.2174517955    1.2174276139    0.9997507399
C283       C    0.2291470299    1.2581025554    1.0571432523
C284       C    0.2793972678    1.3083879554    1.0571821750
C285       C    0.3199773947    1.3199292367    0.9993249735
C286       C    0.3081495862    1.2791711760    0.9416672884
C287       C    0.2578496899    1.2289167764    0.9421185936
H288       H    0.1972758494    1.2487673482    1.1014431757
H289       H    0.2877976053    1.3395737347    1.1022315532
H290       H    0.3391445764    1.2874031730    0.8964417698
H291       H    0.2483560053    1.1968332216    0.8980018498
C272       C   -0.2174681483    1.0002307687    0.7825472779
C273       C   -0.2622656729    0.9452609900    0.7749893660
C274       C   -0.3126467311    0.9452722120    0.7248340815
C275       C   -0.3199933393    1.0006578106    0.6800433592
C276       C   -0.2749375526    1.0557896428    0.6875582692
C277       C   -0.2247643115    1.0553923051    0.7379404900
H278       H   -0.2558840485    0.9027015539    0.8098257292
H279       H   -0.3470342837    0.9021044837    0.7196470210
H280       H   -0.2799436257    1.0991144448    0.6533250470
H281       H   -0.1897774375    1.0978032503    0.7445201586
C262       C    0.2174539357    0.9997628878    0.7825563779
C263       C    0.2564417701    1.0579560146    0.7691735374
C264       C    0.3067990578    1.0579651897    0.7189978425
C265       C    0.3199741012    0.9993368583    0.6800544839
C266       C    0.2807461040    0.9409526370    0.6934125486
C267       C    0.2305550506    0.9413699018    0.7437734008
H268       H    0.2455833200    1.1029748047    0.7995186296
H269       H    0.3366248480    1.1036597888    0.7092370190
H270       H    0.2903114589    0.8950977246    0.6637533341
H271       H    0.2000491941    0.8965051715    0.7548456611
C252       C    0.2174588853    1.0002277728    1.2174328975
C253       C    0.2045248784    0.9743086356    1.2825952212
C254       C    0.2546493896    0.9743677988    1.3330068063
C255       C    0.3199676514    1.0006567597    1.3199531718
C256       C    0.3329096568    1.0267875715    1.2545673883
C257       C    0.2825012305    1.0264230520    1.2044202311
H258       H    0.1537578118    0.9543300659    1.2920455367
H259       H    0.2437246579    0.9540411014    1.3834062075
H260       H    0.3832341366    1.0473038429    1.2435819852
H261       H    0.2918952773    1.0461885950    1.1535587063
C242       C   -0.3199554977    0.9993390452    1.3199347240
C243       C   -0.3086311816    1.0568911472    1.2793756199
C244       C   -0.2583909266    1.0573496427    1.2290848545
C245       C   -0.2174470492    0.9997691201    1.2174211315
C246       C   -0.2289022424    0.9419508340    1.2580628377
C247       C   -0.2791952661    0.9419823336    1.3083235997
H248       H   -0.3407807749    1.1009731739    1.2888046803
H249       H   -0.2502815914    1.1025178592    1.1979900864
H250       H   -0.1976227660    0.8969353986    1.2497352066
H251       H   -0.2884036794    0.8977380577    1.3403181503
C232       C    0.0006581158    0.3199698838    0.6800384417
C233       C    0.0556307554    0.3124004413    0.7248338617
C234       C    0.0556176266    0.2622373132    0.7752045488
C235       C    0.0002271519    0.2174500287    0.7825424579
C236       C   -0.0549075541    0.2249765133    0.7374887878
C237       C   -0.0545082771    0.2753665221    0.6873259433
H238       H    0.0981939511    0.3472342617    0.7184590403
H239       H    0.0987876297    0.2570413190    0.8095906075
H240       H   -0.0982361391    0.1907460989    0.7424882155
H241       H   -0.0969213978    0.2819551693    0.6523408149
C222       C   -0.0006600231    0.6800409413    0.6800582119
C223       C    0.0568956156    0.6913716938    0.7206144532
C224       C    0.0573528589    0.7416140585    0.7709005953
C225       C   -0.0002325318    0.7825536563    0.7825623871
C226       C   -0.0580543632    0.7710920104    0.7419235642
C227       C   -0.0580215827    0.7207969105    0.6916674148
H228       H    0.1009813993    0.6592253715    0.7111869450
H229       H    0.1025238723    0.7497284167    0.8019931879
H230       H   -0.1030735877    0.8023681053    0.7502497526
H231       H   -0.1022685747    0.7115834996    0.6596751113
C212       C    0.0002361817    0.7825327851    0.2174411438
C213       C   -0.0209488493    0.7159691002    0.2030902567
C214       C   -0.0207770313    0.6655235792    0.2531778772
C215       C    0.0006612539    0.6800123606    0.3199446737
C216       C    0.0218145815    0.7468714264    0.3343764913
C217       C    0.0215788824    0.7969811532    0.2839326154
H218       H   -0.0375794396    0.7055280948    0.1513238344
H219       H   -0.0374359354    0.6140384436    0.2411554715
H220       H    0.0386146696    0.7589563595    0.3858106832
H221       H    0.0380826373    0.8488084289    0.2943027745
C202       C   -0.0006593565    0.3199720045    0.3199299412
C203       C   -0.0580572091    0.2792955079    0.3082391305
C204       C   -0.0580947719    0.2290044766    0.2579995886
C205       C   -0.0002307651    0.2174588942    0.2174261659
C206       C    0.0574322835    0.2582185259    0.2292495342
C207       C    0.0569795680    0.3084785603    0.2795387217
H208       H   -0.1023623636    0.2886340979    0.3401050413
H209       H   -0.1031483628    0.1978175640    0.2496025618
H210       H    0.1026631016    0.2499832483    0.1982596230
H211       H    0.1011004017    0.3405633670    0.2890288636
loop_
_geom_bond_atom_site_label_1
_geom_bond_atom_site_label_2
_geom_bond_distance
_geom_bond_site_symmetry_2
_ccdc_geom_bond_type
