data_cds_v1-4c_Cu_1_Ch_1-1B_4H_Ch
_audit_creation_date              2024-08-07
_audit_creation_method            'tobacco_3.0'
_symmetry_space_group_name_H-M    'P1'
_symmetry_Int_Tables_number       1
_symmetry_cell_setting            triclinic
loop_
_symmetry_equiv_pos_as_xyz
  x,y,z
_cell_length_a                    22.36963484107767
_cell_length_b                    22.369546337940527
_cell_length_c                    22.36932835297721
_cell_angle_alpha                 89.99975491807356
_cell_angle_beta                  89.99975491639417
_cell_angle_gamma                 90.00000000000327
loop_
_atom_site_label
_atom_site_type_symbol
_atom_site_fract_x
_atom_site_fract_y
_atom_site_fract_z
_atom_site_charge
O1         O    0.9502939183    0.0867350625    0.5000002057         -1.3557
O2         O    0.9502959417    0.9132645005    0.5000018694         -1.3655
O3         O    0.9502980316    0.9999923377    0.5867389975         -1.2517
O4         O    0.9502918179    0.0000009016    0.4132567572         -1.3358
O5         O    0.0497019578    0.0000013386    0.4132546821         -1.3313
O6         O    0.0497080091    0.9999990942    0.5867305998         -1.2439
O7         O    0.0497060817    0.9132649375    0.4999997943         -1.3689
O8         O    0.0497040583    0.0867354995    0.4999981306         -1.3567
Cu9       Cu    0.9412231625    0.9999950165    0.5000019874          1.0456
Cu10      Cu    0.0587768375    0.0000049835    0.4999980126          1.0433
C11        C    0.0000000000    0.1123129898    0.4999999986          0.3063
C12        C    1.0000000000    0.8876870102    0.5000000014          0.2977
C13        C    0.0000000000    0.9999999986    0.6123101718          0.2191
C14        C    1.0000000000    0.0000000014    0.3876898282          0.2819
O15        O    0.9502939231    0.4132649187    0.5000002125         -1.3557
O16        O    0.9502959465    0.5867354808    0.4999985488         -1.3655
O17        O    0.9502980364    0.5000076436    0.4132614207         -1.2517
O18        O    0.9502918227    0.4999990796    0.5867436610         -1.3358
O19        O    0.0497019626    0.4999986426    0.5867448856         -1.3313
O20        O    0.0497080139    0.5000008871    0.4132689679         -1.2439
O21        O    0.0497060865    0.5867350438    0.4999997734         -1.3689
O22        O    0.0497040631    0.4132644817    0.5000014371         -1.3567
Cu23      Cu    0.9412231673    0.5000049648    0.4999985084          1.0456
Cu24      Cu    0.0587768423    0.4999949977    0.5000014775          1.0433
C25        C    0.0000000048    0.3876869914    0.4999999944          0.3063
C26        C    0.0000000048    0.6123129711    0.4999999915          0.2977
C27        C    0.0000000048    0.4999999827    0.3876898211          0.2191
C28        C    0.0000000048    0.4999999798    0.6123101648          0.2819
O29        O    0.4502939156    0.0867350614    0.5000002002         -1.3557
O30        O    0.4502959390    0.9132644993    0.5000018639         -1.3655
O31        O    0.4502980289    0.9999923365    0.5867389919         -1.2517
O32        O    0.4502918151    0.0000009004    0.4132567517         -1.3358
O33        O    0.5497019551    0.0000013375    0.4132546766         -1.3313
O34        O    0.5497080063    0.9999990930    0.5867305942         -1.2439
O35        O    0.5497060790    0.9132649363    0.4999997888         -1.3689
O36        O    0.5497040556    0.0867354984    0.4999981251         -1.3567
Cu37      Cu    0.4412231598    0.9999950153    0.5000019819          1.0456
Cu38      Cu    0.5587768348    0.0000049824    0.4999980070          1.0433
C39        C    0.4999999973    0.1123129887    0.4999999930          0.3063
C40        C    0.4999999973    0.8876870090    0.4999999959          0.2977
C41        C    0.4999999973    0.9999999974    0.6123101663          0.2191
C42        C    0.4999999973    0.0000000002    0.3876898226          0.2819
O43        O    0.4502939118    0.4132649306    0.5000002209         -1.3557
O44        O    0.4502959353    0.5867354927    0.4999985572         -1.3655
O45        O    0.4502980252    0.5000076555    0.4132614291         -1.2517
O46        O    0.4502918114    0.4999990915    0.5867436694         -1.3358
O47        O    0.5497019514    0.4999986545    0.5867448940         -1.3313
O48        O    0.5497080026    0.5000008990    0.4132689763         -1.2471
O49        O    0.5497060752    0.5867350557    0.4999997818         -1.3689
O50        O    0.5497040518    0.4132644936    0.5000014455         -1.3567
Cu51      Cu    0.4412231560    0.5000049767    0.4999985168          1.0456
Cu52      Cu    0.5587768311    0.4999950096    0.5000014859          1.0433
C53        C    0.4999999935    0.3876870033    0.5000000028          0.3063
C54        C    0.4999999935    0.6123129830    0.4999999999          0.2977
C55        C    0.4999999935    0.4999999946    0.3876898295          0.2191
C56        C    0.4999999935    0.4999999917    0.6123101732          0.2819
O57        O    0.9132652283    0.0497063304    0.9999997908         -1.3557
O58        O    0.0867351041    0.0497043069    0.9999981271         -1.3655
O59        O    0.0000076100    0.0497022170    0.9132609990         -1.2517
O60        O    0.9999990461    0.0497084308    0.0867432393         -1.3358
O61        O    0.9999986091    0.9502978975    0.0867453144         -1.3313
O62        O    0.0000008535    0.9502918463    0.9132693967         -1.2439
O63        O    0.0867346670    0.9502937736    0.0000002022         -1.3689
O64        O    0.9132647913    0.9502957971    0.0000018659         -1.3567
Cu65      Cu    0.0000049312    0.0587771221    0.9999980091          1.0456
Cu66      Cu    0.9999949641    0.9412229819    0.0000019839          1.0433
C67        C    0.8876874022    0.0000000520    0.9999999979          0.3063
C68        C    0.1123124931    0.0000000520    0.9999999951          0.2977
C69        C    0.9999999491    0.0000000520    0.8876898247          0.2191
C70        C    0.9999999463    0.0000000520    0.1123101683          0.2819
O71        O    0.9132652334    0.5497062867    0.9999997827         -1.3557
O72        O    0.0867351092    0.5497042632    0.9999981190         -1.3655
O73        O    0.0000076151    0.5497021733    0.9132609909         -1.2517
O74        O    0.9999990512    0.5497083871    0.0867432312         -1.3358
O75        O    0.9999986142    0.4502978538    0.0867453063         -1.3313
O76        O    0.0000008586    0.4502918026    0.9132693886         -1.2439
O77        O    0.0867346722    0.4502937300    0.0000001941         -1.3689
O78        O    0.9132647964    0.4502957534    0.0000018578         -1.3567
Cu79      Cu    0.0000049364    0.5587770784    0.9999980010          1.0456
Cu80      Cu    0.9999949693    0.4412229382    0.0000019758          1.0433
C81        C    0.8876874073    0.5000000083    0.9999999898          0.3063
C82        C    0.1123124983    0.5000000083    0.9999999870          0.2977
C83        C    0.9999999542    0.5000000083    0.8876898166          0.2191
C84        C    0.9999999514    0.5000000083    0.1123101602          0.2819
O85        O    0.5867346743    0.0497063380    0.9999997706         -1.3557
O86        O    0.4132647985    0.0497043146    0.0000014343         -1.3655
O87        O    0.4999922926    0.0497022246    0.0867385624         -1.2517
O88        O    0.5000008565    0.0497084384    0.9132563221         -1.3358
O89        O    0.5000012935    0.9502979052    0.9132550975         -1.3313
O90        O    0.4999990491    0.9502918539    0.0867310152         -1.2439
O91        O    0.4132652355    0.9502937813    0.0000002097         -1.3689
O92        O    0.5867351113    0.9502958047    0.9999985460         -1.3567
Cu93      Cu    0.4999949714    0.0587771297    0.0000014747          1.0456
Cu94      Cu    0.5000049384    0.9412229896    0.9999985056          1.0433
C95        C    0.6123125004    0.0000000596    0.9999999887          0.3063
C96        C    0.3876874094    0.0000000596    0.9999999916          0.2977
C97        C    0.4999999535    0.0000000596    0.1123101620          0.2191
C98        C    0.4999999563    0.0000000596    0.8876898183          0.2819
O99        O    0.4132652333    0.5497062898    0.9999997953         -1.3557
O100       O    0.5867351091    0.5497042663    0.9999981316         -1.3655
O101       O    0.5000076150    0.5497021764    0.9132610035         -1.2517
O102       O    0.4999990511    0.5497083902    0.0867432438         -1.3358
O103       O    0.4999986141    0.4502978569    0.0867453189         -1.3313
O104       O    0.5000008585    0.4502918057    0.9132694012         -1.2439
O105       O    0.5867346721    0.4502937331    0.0000002067         -1.3689
O106       O    0.4132647963    0.4502957565    0.0000018704         -1.3567
Cu107     Cu    0.5000049362    0.5587770815    0.9999980136          1.0456
Cu108     Cu    0.4999949692    0.4412229413    0.0000019884          1.0433
C109       C    0.3876874072    0.5000000114    0.0000000024          0.3063
C110       C    0.6123124982    0.5000000114    0.9999999996          0.2977
C111       C    0.4999999541    0.5000000114    0.8876898292          0.2191
C112       C    0.4999999513    0.5000000114    0.1123101728          0.2819
C263       C    0.7844214554    0.4855401529    0.9421590140          0.3708
C264       C    0.8188440842    0.5000000091    0.9999999922          0.3708
C265       C    0.7844225816    0.5144598660    0.0578409729          0.3708
C266       C    0.7155784501    0.5144598668    0.0578409754          0.3708
C267       C    0.6811558213    0.5000000106    0.9999999971          0.3708
C268       C    0.7155773240    0.4855401537    0.9421590165          0.3708
H269       H    0.8099023080    0.4748361030    0.8993416647          0.3708
H270       H    0.8099009997    0.5251634578    0.1006564899          0.3708
H271       H    0.6900975976    0.5251639167    0.1006583247          0.3708
H272       H    0.6900989058    0.4748365620    0.8993434995          0.3708
C253       C    0.2155788163    0.5526064847    0.9719429966          0.3708
C254       C    0.1811558213    0.5000000091    0.9999999908          0.3708
C255       C    0.2155769578    0.4473935342    0.0280569890          0.3708
C256       C    0.2844210892    0.4473935350    0.0280569928          0.3708
C257       C    0.3188440842    0.5000000106    0.9999999986          0.3708
C258       C    0.2844229478    0.5526064855    0.9719430004          0.3708
H259       H    0.1900982348    0.5915489401    0.9511735304          0.3708
H260       H    0.1900982686    0.4084527431    0.0488255643          0.3708
H261       H    0.3099016707    0.4084510796    0.0488264590          0.3708
H262       H    0.3099016370    0.5915472766    0.9511744251          0.3708
C243       C    0.7844210953    0.0533261693    0.0266633685          0.3708
C244       C    0.8188440827    0.0000000539    0.9999999956          0.3708
C245       C    0.7844229387    0.9466739404    0.9733366204          0.3708
C246       C    0.7155788073    0.9466739423    0.9733366181          0.3708
C247       C    0.6811558199    0.0000000577    0.9999999910          0.3708
C248       C    0.7155769638    0.0533261712    0.0266633662          0.3708
H249       H    0.8099016824    0.0928013442    0.0464011917          0.3708
H250       H    0.8099016224    0.9072004517    0.9535996427          0.3708
H251       H    0.6900982202    0.9071987674    0.9535987949          0.3708
H252       H    0.6900982802    0.0927996599    0.0464003439          0.3708
C233       C    0.2155786922    0.0596205908    0.9999999938          0.3708
C234       C    0.1811558199    0.0000000539    0.9999999942          0.3708
C235       C    0.2155770789    0.9403795189    0.9999999938          0.3708
C236       C    0.2844212104    0.9403795208    0.9999999929          0.3708
C237       C    0.3188440827    0.0000000577    0.9999999924          0.3708
C238       C    0.2844228236    0.0596205927    0.9999999929          0.3708
H239       H    0.1900980199    0.1037552725    0.9999999941          0.3708
H240       H    0.1900984805    0.8962467226    0.9999999941          0.3708
H241       H    0.3099018827    0.8962448391    0.9999999926          0.3708
H242       H    0.3099014221    0.1037533890    0.9999999926          0.3708
C223       C    0.5431910464    0.5410989683    0.2844213656          0.3708
C224       C    0.4999999830    0.4999999988    0.3188450759          0.3708
C225       C    0.4568089089    0.4589010334    0.2844237115          0.3708
C226       C    0.4568088984    0.4589010377    0.2155786368          0.3708
C227       C    0.4999999619    0.5000000072    0.1811549265          0.3708
C228       C    0.5431910359    0.5410989725    0.2155762909          0.3708
H229       H    0.5751636597    0.5715228777    0.3099021158          0.3708
H230       H    0.4248376704    0.4284784216    0.3099029302          0.3708
H231       H    0.4248362851    0.4284771283    0.1900978865          0.3708
H232       H    0.5751622745    0.5715215844    0.1900970722          0.3708
C213       C    0.4929546383    0.4407972065    0.7844220168          0.3708
C214       C    0.4999999640    0.5000000065    0.8188450759          0.3708
C215       C    0.5070452995    0.5592028015    0.7844230602          0.3708
C216       C    0.5070453093    0.5592027966    0.7155779855          0.3708
C217       C    0.4999999837    0.4999999966    0.6811549265          0.3708
C218       C    0.4929546482    0.4407972016    0.7155769421          0.3708
H219       H    0.4877392601    0.3969717609    0.8099032492          0.3708
H220       H    0.5122604474    0.6030263772    0.8099017968          0.3708
H221       H    0.5122606875    0.6030282423    0.6900967532          0.3708
H222       H    0.4877395002    0.3969736259    0.6900982056          0.3708
C203       C    0.5455372564    0.9615169297    0.2844216756          0.3708
C204       C    0.4999999863    0.0000000151    0.3188450670          0.3708
C205       C    0.4544627053    0.0384831153    0.2844233837          0.3708
C206       C    0.4544626944    0.0384831302    0.2155783090          0.3708
C207       C    0.4999999644    0.0000000448    0.1811549176          0.3708
C208       C    0.5455372455    0.9615169445    0.2155766010          0.3708
H209       H    0.5792466722    0.9330294399    0.3099026620          0.3708
H210       H    0.4207547387    0.0669693762    0.3099023662          0.3708
H211       H    0.4207532785    0.0669706200    0.1900973226          0.3708
H212       H    0.5792452121    0.9330306836    0.1900976184          0.3708
C193       C    0.5555654931    0.9783885417    0.7844215893          0.3708
C194       C    0.4999999666    0.0000000441    0.8188450670          0.3708
C195       C    0.4444344502    0.0216115309    0.7844234700          0.3708
C196       C    0.4444344605    0.0216115154    0.7155783953          0.3708
C197       C    0.4999999870    0.0000000130    0.6811549176          0.3708
C198       C    0.5555655034    0.9783885261    0.7155765146          0.3708
H199       H    0.5966984078    0.9623904280    0.8099025117          0.3708
H200       H    0.4033032865    0.0376089722    0.8099025166          0.3708
H201       H    0.4033015458    0.0376096290    0.6900974729          0.3708
H202       H    0.5966966671    0.9623910849    0.6900974680          0.3708
C183       C    0.4438057538    0.7844213055    0.5199200322          0.3708
C184       C    0.4999999964    0.8188443998    0.4999999969          0.3708
C185       C    0.5561942379    0.7844230903    0.4800799625          0.3708
C186       C    0.5561942370    0.7155786865    0.4800799636          0.3708
C187       C    0.4999999945    0.6811555922    0.4999999989          0.3708
C188       C    0.4438057529    0.7155769017    0.5199200333          0.3708
H189       H    0.4022074192    0.8099020151    0.5346660317          0.3708
H190       H    0.5977907949    0.8099018531    0.4653345927          0.3708
H191       H    0.5977925717    0.6900979769    0.4653339641          0.3708
H192       H    0.4022091959    0.6900981389    0.5346654031          0.3708
C173       C    0.5580179363    0.2155786624    0.4862700752          0.3708
C174       C    0.4999999964    0.1811555922    0.4999999955          0.3708
C175       C    0.4419820554    0.2155769258    0.5137299182          0.3708
C176       C    0.4419820545    0.2844213296    0.5137299206          0.3708
C177       C    0.4999999945    0.3188443998    0.5000000003          0.3708
C178       C    0.5580179354    0.2844230662    0.4862700776          0.3708
H179       H    0.6009662822    0.1900979349    0.4761063662          0.3708
H180       H    0.3990355463    0.1900981809    0.5238931909          0.3708
H181       H    0.3990337086    0.3099020571    0.5238936296          0.3708
H182       H    0.6009644445    0.3099018111    0.4761068049          0.3708
C163       C    0.9656726329    0.4512533832    0.2844220772          0.3708
C164       C    0.9999999915    0.4999999891    0.3188450653          0.3708
C165       C    0.0343273366    0.5487466014    0.2844229788          0.3708
C166       C    0.0343273233    0.5487466078    0.2155779041          0.3708
C167       C    0.9999999648    0.5000000019    0.1811549160          0.3708
C168       C    0.9656726196    0.4512533896    0.2155770025          0.3708
H169       H    0.9402614813    0.4151682286    0.3099033620          0.3708
H170       H    0.0597374117    0.5848302085    0.3099016630          0.3708
H171       H    0.0597384749    0.5848317623    0.1900966193          0.3708
H172       H    0.9402625445    0.4151697825    0.1900983184          0.3708
C153       C    0.0407070087    0.5435606778    0.7155779041          0.3708
C154       C    0.9999999922    0.4999999869    0.6811549160          0.3708
C155       C    0.9592929629    0.4564393032    0.7155770025          0.3708
C156       C    0.9592929503    0.4564393103    0.7844220772          0.3708
C157       C    0.9999999669    0.5000000012    0.8188450653          0.3708
C158       C    0.0407069961    0.5435606850    0.7844229788          0.3708
H159       H    0.0708407836    0.5758068983    0.6900966193          0.3708
H160       H    0.9291604857    0.4241944560    0.6900983184          0.3708
H161       H    0.9291591754    0.4241930899    0.8099033620          0.3708
H162       H    0.0708394734    0.5758055321    0.8099016629          0.3708
C143       C    0.9414713557    0.0113570164    0.2844219426          0.3708
C144       C    0.9999999866    0.0000000141    0.3188450729          0.3708
C145       C    0.0585286040    0.9886430243    0.2844231286          0.3708
C146       C    0.0585285905    0.9886430370    0.2155780539          0.3708
C147       C    0.9999999597    0.0000000394    0.1811549236          0.3708
C148       C    0.9414713423    0.0113570291    0.2155768679          0.3708
H149       H    0.8981449766    0.0197641387    0.3099031222          0.3708
H150       H    0.1018531407    0.9802362521    0.3099019180          0.3708
H151       H    0.1018549696    0.9802359147    0.1900968743          0.3708
H152       H    0.8981468055    0.0197638013    0.1900980785          0.3708
C133       C    0.9905532560    0.0588673864    0.7155780446          0.3708
C134       C    0.9999999873    0.0000000119    0.6811549236          0.3708
C135       C    0.0094467058    0.9411326508    0.7155768772          0.3708
C136       C    0.0094466930    0.9411326642    0.7844219519          0.3708
C137       C    0.9999999618    0.0000000386    0.8188450729          0.3708
C138       C    0.9905532433    0.0588673997    0.7844231193          0.3708
H139       H    0.9835602307    0.1024445238    0.6900968582          0.3708
H140       H    0.0164394416    0.8975573665    0.6900980947          0.3708
H141       H    0.0164397184    0.8975555268    0.8099031383          0.3708
H142       H    0.9835605075    0.1024426841    0.8099019018          0.3708
C123       C    0.9423355936    0.7844213179    0.5151462831          0.3708
C124       C    0.0000000012    0.8188443944    0.4999999989          0.3708
C125       C    0.0576644100    0.7844230671    0.4848537123          0.3708
C126       C    0.0576644112    0.7155786633    0.4848537098          0.3708
C127       C    0.0000000036    0.6811555868    0.4999999940          0.3708
C128       C    0.9423355948    0.7155769141    0.5151462806          0.3708
H129       H    0.8996489533    0.8099020407    0.5263584693          0.3708
H130       H    0.1003492245    0.8099018167    0.4736420072          0.3708
H131       H    0.1003510515    0.6900979405    0.4736415236          0.3708
H132       H    0.8996507803    0.6900981645    0.5263579857          0.3708
C113       C    0.9403797017    0.2155785980    0.4999999970          0.3708
C114       C    0.0000000012    0.1811555868    0.4999999975          0.3708
C115       C    0.0596203019    0.2155769794    0.4999999970          0.3708
C116       C    0.0596203031    0.2844213832    0.4999999959          0.3708
C117       C    0.0000000036    0.3188443944    0.4999999954          0.3708
C118       C    0.9403797029    0.2844230018    0.4999999960          0.3708
H119       H    0.8962451935    0.1900978269    0.4999999975          0.3708
H120       H    0.1037529224    0.1900982782    0.4999999973          0.3708
H121       H    0.1037548113    0.3099021543    0.4999999955          0.3708
H122       H    0.8962470824    0.3099017031    0.4999999956          0.3708
loop_
_geom_bond_atom_site_label_1
_geom_bond_atom_site_label_2
_geom_bond_distance
_geom_bond_site_symmetry_2
_ccdc_geom_bond_type
O1          Cu9 1.951       .   S
O1          C11 1.250       .   A
O2          Cu9 1.951       .   S
O2          C12 1.250       .   A
O3          Cu9 1.951       .   S
O3          C13 1.250       .   A
O4          Cu9 1.951       .   S
O4          C14 1.250       .   A
O5         Cu10 1.951       .   S
O5          C14 1.250       .   A
O6         Cu10 1.951       .   S
O6          C13 1.251       .   A
O7         Cu10 1.951       .   S
O7          C12 1.250       .   A
O8         Cu10 1.951       .   S
O8          C11 1.250       .   A
Cu9        Cu10 2.630       .   S
C11        C114 1.540       .   S
C12        C124 1.540       .   S
C13        C134 1.540       .   S
C14        C144 1.540       .   S
O15        Cu23 1.951       .   S
O15         C25 1.250       .   A
O16        Cu23 1.951       .   S
O16         C26 1.250       .   A
O17        Cu23 1.951       .   S
O17         C27 1.250       .   A
O18        Cu23 1.951       .   S
O18         C28 1.250       .   A
O19        Cu24 1.951       .   S
O19         C28 1.250       .   A
O20        Cu24 1.951       .   S
O20         C27 1.251       .   A
O21        Cu24 1.951       .   S
O21         C26 1.250       .   A
O22        Cu24 1.951       .   S
O22         C25 1.250       .   A
Cu23       Cu24 2.630       .   S
C25        C117 1.540       .   S
C26        C127 1.540   1_565   S
C27        C164 1.540       .   S
C28        C154 1.540       .   S
O29        Cu37 1.951       .   S
O29         C39 1.250       .   A
O30        Cu37 1.951       .   S
O30         C40 1.250       .   A
O31        Cu37 1.951       .   S
O31         C41 1.250       .   A
O32        Cu37 1.951       .   S
O32         C42 1.250       .   A
O33        Cu38 1.951       .   S
O33         C42 1.250       .   A
O34        Cu38 1.951       .   S
O34         C41 1.251       .   A
O35        Cu38 1.951       .   S
O35         C40 1.250       .   A
O36        Cu38 1.951       .   S
O36         C39 1.250       .   A
Cu37       Cu38 2.630       .   S
C39        C174 1.540       .   S
C40        C184 1.540       .   S
C41        C197 1.540       .   S
C42        C204 1.540       .   S
O43        Cu51 1.951       .   S
O43         C53 1.250       .   A
O44        Cu51 1.951       .   S
O44         C54 1.250       .   A
O45        Cu51 1.951       .   S
O45         C55 1.250       .   A
O46        Cu51 1.951       .   S
O46         C56 1.250       .   A
O47        Cu52 1.951       .   S
O47         C56 1.250       .   A
O48        Cu52 1.951       .   S
O48         C55 1.251       .   A
O49        Cu52 1.951       .   S
O49         C54 1.250       .   A
O50        Cu52 1.951       .   S
O50         C53 1.250       .   A
Cu51       Cu52 2.630       .   S
C53        C177 1.540   1_545   S
C54        C187 1.540       .   S
C55        C224 1.540       .   S
C56        C217 1.540       .   S
O57        Cu65 1.951       .   S
O57         C67 1.250       .   A
O58        Cu65 1.951       .   S
O58         C68 1.250       .   A
O59        Cu65 1.951       .   S
O59         C69 1.250       .   A
O60        Cu65 1.951       .   S
O60         C70 1.250       .   A
O61        Cu66 1.951       .   S
O61         C70 1.250       .   A
O62        Cu66 1.951       .   S
O62         C69 1.251       .   A
O63        Cu66 1.951       .   S
O63         C68 1.250       .   A
O64        Cu66 1.951       .   S
O64         C67 1.250       .   A
Cu65       Cu66 2.630       .   S
C67        C244 1.540       .   S
C68        C234 1.540       .   S
C69        C137 1.540   1_655   S
C70        C147 1.540   1_656   S
O71        Cu79 1.951       .   S
O71         C81 1.250       .   A
O72        Cu79 1.951       .   S
O72         C82 1.250       .   A
O73        Cu79 1.951       .   S
O73         C83 1.250       .   A
O74        Cu79 1.951       .   S
O74         C84 1.250       .   A
O75        Cu80 1.951       .   S
O75         C84 1.250       .   A
O76        Cu80 1.951       .   S
O76         C83 1.251       .   A
O77        Cu80 1.951       .   S
O77         C82 1.250       .   A
O78        Cu80 1.951       .   S
O78         C81 1.250       .   A
Cu79       Cu80 2.630       .   S
C81        C264 1.540       .   S
C82        C254 1.540       .   S
C83        C157 1.540   1_655   S
C84        C167 1.540   1_656   S
O85        Cu93 1.951       .   S
O85         C95 1.250       .   A
O86        Cu93 1.951       .   S
O86         C96 1.250       .   A
O87        Cu93 1.951       .   S
O87         C97 1.250       .   A
O88        Cu93 1.951       .   S
O88         C98 1.250       .   A
O89        Cu94 1.951       .   S
O89         C98 1.250       .   A
O90        Cu94 1.951       .   S
O90         C97 1.251       .   A
O91        Cu94 1.951       .   S
O91         C96 1.250       .   A
O92        Cu94 1.951       .   S
O92         C95 1.250       .   A
Cu93       Cu94 2.630       .   S
C95        C247 1.540       .   S
C96        C237 1.540   1_455   S
C97        C207 1.540   1_546   S
C98        C194 1.540   1_545   S
O99       Cu107 1.951       .   S
O99        C109 1.250       .   A
O100      Cu107 1.951       .   S
O100       C110 1.250       .   A
O101      Cu107 1.951       .   S
O101       C111 1.250       .   A
O102      Cu107 1.951       .   S
O102       C112 1.250       .   A
O103      Cu108 1.951       .   S
O103       C112 1.250       .   A
O104      Cu108 1.951       .   S
O104       C111 1.251       .   A
O105      Cu108 1.951       .   S
O105       C110 1.250       .   A
O106      Cu108 1.951       .   S
O106       C109 1.250       .   A
Cu107     Cu108 2.630       .   S
C109       C257 1.540   1_454   S
C110       C267 1.540   1_554   S
C111       C214 1.540   1_554   S
C112       C227 1.540       .   S
C263       C264 1.540       .   A
C263       C268 1.540       .   A
C263       H269 1.140       .   S
C264       C265 1.540       .   A
C265       C266 1.540       .   A
C265       H270 1.140       .   S
C266       C267 1.540       .   A
C266       H271 1.140       .   S
C267       C268 1.540       .   A
C268       H272 1.140       .   S
C253       C254 1.540       .   A
C253       C258 1.540       .   A
C253       H259 1.140       .   S
C254       C255 1.540       .   A
C255       C256 1.540       .   A
C255       H260 1.140       .   S
C256       C257 1.540       .   A
C256       H261 1.140       .   S
C257       C258 1.540       .   A
C258       H262 1.140       .   S
C243       C244 1.540       .   A
C243       C248 1.540       .   A
C243       H249 1.140       .   S
C244       C245 1.540       .   A
C245       C246 1.540       .   A
C245       H250 1.140       .   S
C246       C247 1.540       .   A
C246       H251 1.140       .   S
C247       C248 1.540       .   A
C248       H252 1.140       .   S
C233       C234 1.540       .   A
C233       C238 1.540       .   A
C233       H239 1.140       .   S
C234       C235 1.540       .   A
C235       C236 1.540       .   A
C235       H240 1.140       .   S
C236       C237 1.540       .   A
C236       H241 1.140       .   S
C237       C238 1.540       .   A
C238       H242 1.140       .   S
C223       C224 1.540       .   A
C223       C228 1.540       .   A
C223       H229 1.140       .   S
C224       C225 1.540       .   A
C225       C226 1.540       .   A
C225       H230 1.140       .   S
C226       C227 1.540       .   A
C226       H231 1.140       .   S
C227       C228 1.540       .   A
C228       H232 1.140       .   S
C213       C214 1.540       .   A
C213       C218 1.540       .   A
C213       H219 1.140       .   S
C214       C215 1.540       .   A
C215       C216 1.540       .   A
C215       H220 1.140       .   S
C216       C217 1.540       .   A
C216       H221 1.140       .   S
C217       C218 1.540       .   A
C218       H222 1.140       .   S
C203       C204 1.540       .   A
C203       C208 1.540       .   A
C203       H209 1.140       .   S
C204       C205 1.540       .   A
C205       C206 1.540       .   A
C205       H210 1.140       .   S
C206       C207 1.540       .   A
C206       H211 1.140       .   S
C207       C208 1.540       .   A
C208       H212 1.140       .   S
C193       C194 1.540       .   A
C193       C198 1.540       .   A
C193       H199 1.140       .   S
C194       C195 1.540       .   A
C195       C196 1.540       .   A
C195       H200 1.140       .   S
C196       C197 1.540       .   A
C196       H201 1.140       .   S
C197       C198 1.540       .   A
C198       H202 1.140       .   S
C183       C184 1.540       .   A
C183       C188 1.540       .   A
C183       H189 1.140       .   S
C184       C185 1.540       .   A
C185       C186 1.540       .   A
C185       H190 1.140       .   S
C186       C187 1.540       .   A
C186       H191 1.140       .   S
C187       C188 1.540       .   A
C188       H192 1.140       .   S
C173       C174 1.540       .   A
C173       C178 1.540       .   A
C173       H179 1.140       .   S
C174       C175 1.540       .   A
C175       C176 1.540       .   A
C175       H180 1.140       .   S
C176       C177 1.540       .   A
C176       H181 1.140       .   S
C177       C178 1.540       .   A
C178       H182 1.140       .   S
C163       C164 1.540       .   A
C163       C168 1.540       .   A
C163       H169 1.140       .   S
C164       C165 1.540       .   A
C165       C166 1.540       .   A
C165       H170 1.140       .   S
C166       C167 1.540       .   A
C166       H171 1.140       .   S
C167       C168 1.540       .   A
C168       H172 1.140       .   S
C153       C154 1.540       .   A
C153       C158 1.540       .   A
C153       H159 1.140       .   S
C154       C155 1.540       .   A
C155       C156 1.540       .   A
C155       H160 1.140       .   S
C156       C157 1.540       .   A
C156       H161 1.140       .   S
C157       C158 1.540       .   A
C158       H162 1.140       .   S
C143       C144 1.540       .   A
C143       C148 1.540       .   A
C143       H149 1.140       .   S
C144       C145 1.540       .   A
C145       C146 1.540       .   A
C145       H150 1.140       .   S
C146       C147 1.540       .   A
C146       H151 1.140       .   S
C147       C148 1.540       .   A
C148       H152 1.140       .   S
C133       C134 1.540       .   A
C133       C138 1.540       .   A
C133       H139 1.140       .   S
C134       C135 1.540       .   A
C135       C136 1.540       .   A
C135       H140 1.140       .   S
C136       C137 1.540       .   A
C136       H141 1.140       .   S
C137       C138 1.540       .   A
C138       H142 1.140       .   S
C123       C124 1.540       .   A
C123       C128 1.540       .   A
C123       H129 1.140       .   S
C124       C125 1.540       .   A
C125       C126 1.540       .   A
C125       H130 1.140       .   S
C126       C127 1.540       .   A
C126       H131 1.140       .   S
C127       C128 1.540       .   A
C128       H132 1.140       .   S
C113       C114 1.540       .   A
C113       C118 1.540       .   A
C113       H119 1.140       .   S
C114       C115 1.540       .   A
C115       C116 1.540       .   A
C115       H120 1.140       .   S
C116       C117 1.540       .   A
C116       H121 1.140       .   S
C117       C118 1.540       .   A
C118       H122 1.140       .   S
