data_ffc_v1-4c_Cu_1_Ch_v2-4c_Cu_1_Ch_v3-3c_B_Ch_2-1B_4H_Ch
_audit_creation_date              2024-08-05
_audit_creation_method            'tobacco_3.0'
_symmetry_space_group_name_H-M    'P1'
_symmetry_Int_Tables_number       1
_symmetry_cell_setting            triclinic
loop_
_symmetry_equiv_pos_as_xyz
  x,y,z
_cell_length_a                    33.71429450022778
_cell_length_b                    33.71441276936469
_cell_length_c                    15.230386480587331
_cell_angle_alpha                 89.9998625663006
_cell_angle_beta                  90.00013235205266
_cell_angle_gamma                 90.00020311881774
loop_
_atom_site_label
_atom_site_type_symbol
_atom_site_fract_x
_atom_site_fract_y
_atom_site_fract_z
_atom_site_charge
O1         O    0.4670228732    0.9593044063    0.9099200508         -1.5411
O2         O    0.4670179081    0.0406912270    0.0900783524         -1.5509
O3         O    0.4670192944    0.0406954737    0.9099252103         -1.4371
O4         O    0.4670214798    0.9593001611    0.0900863244         -1.5212
O5         O    0.5329806986    0.9593045278    0.0900879213         -1.5167
O6         O    0.5329784058    0.0406939092    0.9099268104         -1.4292
O7         O    0.5329771268    0.0406955937    0.0900799492         -1.5543
O8         O    0.5329820919    0.9593087730    0.9099216476         -1.5421
Cu9       Cu    0.4610012187    0.9999999918    0.0000031734          1.0456
Cu10      Cu    0.5389987813    0.0000000082    0.9999968266          1.0433
C11        C    0.5000040838    0.9473068543    0.8833559363          0.1209
C12        C    0.4999959162    0.0526931457    0.1166440637          0.1123
C13        C    0.4999959163    0.0526916782    0.8833602546          0.0337
C14        C    0.5000040837    0.9473083218    0.1166397454          0.0965
C15        C    0.4999926133    0.2536676194    0.5000035936          0.1854
C16        C    0.4999922673    0.2308285486    0.5875652891          0.1854
C17        C    0.4999915754    0.1851507546    0.5875650874          0.1854
C18        C    0.4999912294    0.1623120315    0.5000031901          0.1854
C19        C    0.4999915754    0.1851511023    0.4124414946          0.1854
C20        C    0.4999922673    0.2308288962    0.4124416963          0.1854
H21        H    0.4999925235    0.2477351359    0.6523962859          0.1854
H22        H    0.4999907171    0.1284985996    0.5000030407          0.1854
H23        H    0.4999925235    0.2477357408    0.3476108489          0.1854
C24        C    0.5000248528    0.7463314942    0.5000006865          0.1854
C25        C    0.5000245068    0.7691704585    0.5875622756          0.1854
C26        C    0.5000238148    0.8148482525    0.5875618609          0.1854
C27        C    0.5000234689    0.8376870821    0.4999998571          0.1854
C28        C    0.5000238148    0.8148481178    0.4124382681          0.1854
C29        C    0.5000245068    0.7691703238    0.4124386828          0.1854
H30        H    0.5000247629    0.7522637924    0.6523933512          0.1854
H31        H    0.5000229566    0.8715005140    0.4999995502          0.1854
H32        H    0.5000247629    0.7522635580    0.3476079141          0.1854
O33        O    0.0407029752    0.4670187255    0.9099213831         -1.5411
O34        O    0.9593158716    0.4670134962    0.0900797066         -1.5509
O35        O    0.9593116223    0.4670148825    0.9099265646         -1.4371
O36        O    0.0407072231    0.4670173322    0.0900876568         -1.5212
O37        O    0.0407031099    0.5329763196    0.0900885661         -1.5167
O38        O    0.9593134403    0.5329737625    0.9099274771         -1.4292
O39        O    0.9593117585    0.5329724836    0.0900806160         -1.5543
O40        O    0.0406988620    0.5329777129    0.9099222925         -1.5421
Cu41      Cu    0.0000072251    0.4609969601    0.0000045794          1.0456
Cu42      Cu    0.0000075086    0.5389942490    0.9999974197          1.0433
C43        C    0.0527006957    0.4999998594    0.8833569216          0.1209
C44        C    0.9473140380    0.4999913497    0.1166450775          0.1123
C45        C    0.9473155021    0.4999913498    0.8833612684          0.0337
C46        C    0.0526992316    0.4999998593    0.1166407307          0.0965
C47        C    0.2536765525    0.5000159995    0.4999988719          0.1854
C48        C    0.2308375261    0.5000158481    0.5875604885          0.1854
C49        C    0.1851595719    0.5000155452    0.5875601290          0.1854
C50        C    0.1623206441    0.5000153938    0.4999981529          0.1854
C51        C    0.1851596704    0.5000155452    0.4124365362          0.1854
C52        C    0.2308376246    0.5000158481    0.4124368958          0.1854
H53        H    0.2477442649    0.5000159602    0.6523915437          0.1854
H54        H    0.1285070935    0.5000151696    0.4999978867          0.1854
H55        H    0.2477444364    0.5000159602    0.3476061067          0.1854
C56        C    0.7463380100    0.4999824097    0.5000019318          0.1854
C57        C    0.7691771389    0.4999822583    0.5875636510          0.1854
C58        C    0.8148550931    0.4999819554    0.5875634965          0.1854
C59        C    0.8376939184    0.4999818040    0.5000016229          0.1854
C60        C    0.8148547895    0.4999819554    0.4124399038          0.1854
C61        C    0.7691768353    0.4999822583    0.4124400582          0.1854
H62        H    0.7522704760    0.4999823704    0.6523946303          0.1854
H63        H    0.8715074689    0.4999815798    0.5000015086          0.1854
H64        H    0.7522699476    0.4999823704    0.3476091933          0.1854
O65        O    0.5000043547    0.4424501190    0.4270004981         -1.5411
O66        O    0.5000119032    0.5575480089    0.4270028551         -1.5509
O67        O    0.5575584927    0.5000007384    0.4270065538         -1.4371
O68        O    0.4424535718    0.5000015855    0.4269967839         -1.5212
O69        O    0.4424524629    0.5000012966    0.5730054576         -1.5167
O70        O    0.5575531885    0.4999962568    0.5730149888         -1.4292
O71        O    0.5000107943    0.5575477200    0.5730115289         -1.5543
O72        O    0.5000032457    0.4424498301    0.5730091719         -1.5421
Cu73      Cu    0.5000087349    0.5000022255    0.4136775152          1.0456
Cu74      Cu    0.5000064140    0.4999956136    0.5863345117          1.0433
C75        C    0.5000034009    0.4254791394    0.5000064116          0.1209
C76        C    0.5000117480    0.5745186996    0.5000056154          0.1123
C77        C    0.5745250201    0.4999946935    0.5000064301          0.0337
C78        C    0.4254901289    0.5000031456    0.5000055969          0.0965
C189       C    0.6832672090    0.4607341198    0.4891421920          0.1854
C190       C    0.7061100054    0.4999852858    0.5000029851          0.1854
C191       C    0.6832743114    0.5392397176    0.5108649740          0.1854
C192       C    0.6375958211    0.5392429834    0.5108661699          0.1854
C193       C    0.6147530247    0.4999918174    0.5000053769          0.1854
C194       C    0.6375887186    0.4607373856    0.4891433879          0.1854
H195       H    0.7001715539    0.4316756443    0.4811014989          0.1854
H196       H    0.7001817455    0.5682945335    0.5189044382          0.1854
H197       H    0.6206914762    0.5683014589    0.5189068630          0.1854
H198       H    0.6206812846    0.4316825697    0.4811039238          0.1854
C179       C    0.3167452399    0.5000113760    0.4124340064          0.1854
C180       C    0.2939048503    0.5000129899    0.5000004465          0.1854
C181       C    0.3167429511    0.5000111864    0.5875686745          0.1854
C182       C    0.3624214414    0.5000077690    0.5875704624          0.1854
C183       C    0.3852618310    0.5000061552    0.5000040223          0.1854
C184       C    0.3624237302    0.5000079587    0.4124357943          0.1854
H185       H    0.2998391133    0.5000127111    0.3476107727          0.1854
H186       H    0.2998372987    0.5000123809    0.6523878135          0.1854
H187       H    0.3793275680    0.5000064340    0.6523936961          0.1854
H188       H    0.3793293827    0.5000067641    0.3476166553          0.1854
C169       C    0.1350093860    0.4604513217    0.3004506760          0.1854
C170       C    0.1510873441    0.5000115104    0.3363500360          0.1854
C171       C    0.1350074092    0.5395678910    0.3004379935          0.1854
C172       C    0.1028495161    0.5395640829    0.2286265910          0.1854
C173       C    0.0867715579    0.5000038941    0.1927272309          0.1854
C174       C    0.1028514928    0.4604475135    0.2286392734          0.1854
H175       H    0.1469127144    0.4311693256    0.3270349152          0.1854
H176       H    0.1469077478    0.5688514539    0.3270094357          0.1854
H177       H    0.0909461876    0.5688460789    0.2020423517          0.1854
H178       H    0.0909511542    0.4311639506    0.2020678312          0.1854
C159       C    0.1309461869    0.5000136679    0.8330109557          0.1854
C160       C    0.0867725604    0.5000038942    0.8072703007          0.1854
C161       C    0.0747565073    0.4999979287    0.7097178702          0.1854
C162       C    0.1069140806    0.5000017368    0.6379060949          0.1854
C163       C    0.1510877072    0.5000115104    0.6636467500          0.1854
C164       C    0.1631037603    0.5000174760    0.7611991804          0.1854
H165       H    0.1398411873    0.5000180839    0.9052250926          0.1854
H166       H    0.0420589657    0.4999906941    0.6906616416          0.1854
H167       H    0.0980190803    0.4999973207    0.5656919581          0.1854
H168       H    0.1958013019    0.5000247106    0.7802554091          0.1854
C149       C    0.8690685680    0.4999876518    0.1669899341          0.1854
C150       C    0.9132421406    0.4999889332    0.1927310518          0.1854
C151       C    0.9252579863    0.4999879339    0.2902836083          0.1854
C152       C    0.8931002594    0.4999856533    0.3620950472          0.1854
C153       C    0.8489266869    0.4999843719    0.3363539295          0.1854
C154       C    0.8369108412    0.4999853711    0.2388013730          0.1854
H155       H    0.8601737212    0.4999883916    0.0947757039          0.1854
H156       H    0.9579554879    0.4999888824    0.3093401794          0.1854
H157       H    0.9019951063    0.4999849135    0.4343092773          0.1854
H158       H    0.8042133395    0.4999844227    0.2197448019          0.1854
C139       C    0.9252580954    0.4999874122    0.7097198650          0.1854
C140       C    0.9132430793    0.4999889333    0.8072740298          0.1854
C141       C    0.8690702815    0.4999881737    0.8330165473          0.1854
C142       C    0.8369124998    0.4999858930    0.7612049000          0.1854
C143       C    0.8489275159    0.4999843719    0.6636507352          0.1854
C144       C    0.8931003137    0.4999851315    0.6379082177          0.1854
H145       H    0.9579574392    0.4999879744    0.6906637157          0.1854
H146       H    0.8601754114    0.4999892996    0.9052266081          0.1854
H147       H    0.8042131560    0.4999853308    0.7802610493          0.1854
H148       H    0.9019951838    0.4999840056    0.5656981569          0.1854
C129       C    0.4604813723    0.6832665881    0.4972353265          0.1854
C130       C    0.5000217844    0.7061034271    0.5000018406          0.1854
C131       C    0.5395587125    0.6832619359    0.5027696650          0.1854
C132       C    0.5395552285    0.6375836058    0.5027709754          0.1854
C133       C    0.5000148163    0.6147467668    0.5000044613          0.1854
C134       C    0.4604778883    0.6375882579    0.4972366369          0.1854
H135       H    0.4312137762    0.7001752244    0.4951864175          0.1854
H136       H    0.5688276363    0.7001649601    0.5048175164          0.1854
H137       H    0.5688228246    0.6206749695    0.5048198844          0.1854
H138       H    0.4312089645    0.6206852337    0.4951887855          0.1854
C119       C    0.5395549726    0.3167324066    0.5001013037          0.1854
C120       C    0.4999951391    0.2938950492    0.5000042534          0.1854
C121       C    0.4604381736    0.3167360219    0.4999079523          0.1854
C122       C    0.4604410417    0.3624143521    0.4999087015          0.1854
C123       C    0.5000008752    0.3852517096    0.5000057518          0.1854
C124       C    0.5395578406    0.3624107368    0.5001020529          0.1854
H125       H    0.5688374016    0.2998241541    0.5001725916          0.1839
H126       H    0.4311548736    0.2998326140    0.4998361129          0.1854
H127       H    0.4311586127    0.3793226047    0.4998374136          0.1854
H128       H    0.5688411407    0.3793141448    0.5001738923          0.1854
C109       C    0.4734530440    0.1236757136    0.1829242695          0.1854
C110       C    0.4999947996    0.0867647555    0.1927308078          0.1854
C111       C    0.5265355013    0.0820111659    0.2743493174          0.1854
C112       C    0.5265344475    0.1141685344    0.3461612888          0.1854
C113       C    0.4999926919    0.1510794925    0.3363547506          0.1854
C114       C    0.4734519902    0.1558330821    0.2547362409          0.1854
H115       H    0.4538060311    0.1271946046    0.1225053727          0.1854
H116       H    0.5461824544    0.0546896554    0.2816106652          0.1854
H117       H    0.5461814605    0.1106496434    0.4065801856          0.1854
H118       H    0.4538050371    0.1831545926    0.2474748931          0.1854
C99        C    0.4711323019    0.0836294143    0.7292095777          0.1854
C100       C    0.4999947997    0.0867635095    0.8072742414          0.1854
C101       C    0.5288562436    0.1220553116    0.8135273347          0.1854
C102       C    0.5288551897    0.1542130185    0.7417157643          0.1854
C103       C    0.4999926920    0.1510789233    0.6636511006          0.1854
C104       C    0.4711312480    0.1157871212    0.6573980073          0.1854
H105       H    0.4497673369    0.0575043141    0.7245806644          0.1854
H106       H    0.5502210753    0.1243762745    0.8713107192          0.1854
H107       H    0.5502201547    0.1803381187    0.7463446776          0.1854
H108       H    0.4497664164    0.1134661583    0.5996146228          0.1854
C89        C    0.4709206796    0.8840316833    0.3422155852          0.1854
C90        C    0.5000187394    0.8489205590    0.3363506775          0.1854
C91        C    0.5291120092    0.8459670955    0.2586740990          0.1854
C92        C    0.5291072190    0.8781247563    0.1868624282          0.1854
C93        C    0.5000091591    0.9132358806    0.1927273360          0.1854
C94        C    0.4709158894    0.9161893441    0.2704039144          0.1854
H95        H    0.4493841033    0.8862180134    0.3997164290          0.1854
H96        H    0.5506512104    0.8199778726    0.2543304569          0.1854
H97        H    0.5506437953    0.8759384262    0.1293615844          0.1854
H98        H    0.4493766882    0.9421785670    0.2747475565          0.1854
C79        C    0.5289099860    0.9163433632    0.7292703272          0.1854
C80        C    0.5000091591    0.9132351847    0.8072702924          0.1854
C81        C    0.4711131224    0.8779693749    0.8134588638          0.1854
C82        C    0.4711179126    0.8458117435    0.7416474699          0.1854
C83        C    0.5000187395    0.8489199220    0.6636475047          0.1854
C84        C    0.5289147762    0.8841857319    0.6574589333          0.1854
H85        H    0.5503005587    0.9424492224    0.7246891770          0.1854
H86        H    0.4497199186    0.8756675961    0.8711943567          0.1854
H87        H    0.4497273400    0.8197058843    0.7462286202          0.1854
H88        H    0.5503079801    0.8864875106    0.5997234404          0.1854
loop_
_geom_bond_atom_site_label_1
_geom_bond_atom_site_label_2
_geom_bond_distance
_geom_bond_site_symmetry_2
_ccdc_geom_bond_type
O1          Cu9 1.951       .   S
O1          C11 1.250       .   A
O2          Cu9 1.951       .   S
O2          C12 1.250       .   A
O3          Cu9 1.951       .   S
O3          C13 1.250       .   A
O4          Cu9 1.951       .   S
O4          C14 1.250       .   A
O5         Cu10 1.951       .   S
O5          C14 1.250       .   A
O6         Cu10 1.951       .   S
O6          C13 1.251       .   A
O7         Cu10 1.951       .   S
O7          C12 1.250       .   A
O8         Cu10 1.951       .   S
O8          C11 1.250       .   A
Cu9        Cu10 2.630       .   S
C11         C80 1.632       .   S
C12        C110 1.632       .   S
C13        C100 1.632       .   S
C14         C93 1.632       .   S
C15         C16 1.540       .   A
C15         C20 1.540       .   A
C15        C120 1.356       .   S
C16         C17 1.540       .   A
C16         H21 1.140       .   S
C17         C18 1.540       .   A
C17        C103 1.632   1_556   S
C18         C19 1.540       .   A
C18         H22 1.140       .   S
C19         C20 1.540       .   A
C19        C113 1.632       .   S
C20         H23 1.140       .   S
C24         C25 1.540       .   A
C24         C29 1.540       .   A
C24        C130 1.356       .   S
C25         C26 1.540       .   A
C25         H30 1.140       .   S
C26         C27 1.540       .   A
C26         C83 1.632   1_566   S
C27         C28 1.540       .   A
C27         H31 1.140       .   S
C28         C29 1.540       .   A
C28         C90 1.632   1_565   S
C29         H32 1.140       .   S
O33        Cu41 1.951       .   S
O33         C43 1.250       .   A
O34        Cu41 1.951       .   S
O34         C44 1.250       .   A
O35        Cu41 1.951       .   S
O35         C45 1.250       .   A
O36        Cu41 1.951       .   S
O36         C46 1.250       .   A
O37        Cu42 1.951       .   S
O37         C46 1.250       .   A
O38        Cu42 1.951       .   S
O38         C45 1.251       .   A
O39        Cu42 1.951       .   S
O39         C44 1.250       .   A
O40        Cu42 1.951       .   S
O40         C43 1.250       .   A
Cu41       Cu42 2.630       .   S
C43        C160 1.632       .   S
C44        C150 1.632       .   S
C45        C140 1.632       .   S
C46        C173 1.632       .   S
C47         C48 1.540       .   A
C47         C52 1.540       .   A
C47        C180 1.356       .   S
C48         C49 1.540       .   A
C48         H53 1.140       .   S
C49         C50 1.540       .   A
C49        C163 1.632   1_556   S
C50         C51 1.540       .   A
C50         H54 1.140       .   S
C51         C52 1.540       .   A
C51        C170 1.632       .   S
C52         H55 1.140       .   S
C56         C57 1.540       .   A
C56         C61 1.540       .   A
C56        C190 1.356       .   S
C57         C58 1.540       .   A
C57         H62 1.140       .   S
C58         C59 1.540       .   A
C58        C143 1.632   1_656   S
C59         C60 1.540       .   A
C59         H63 1.140       .   S
C60         C61 1.540       .   A
C60        C153 1.632   1_655   S
C61         H64 1.140       .   S
O65        Cu73 1.951       .   S
O65         C75 1.250       .   A
O66        Cu73 1.951       .   S
O66         C76 1.250       .   A
O67        Cu73 1.951       .   S
O67         C77 1.250       .   A
O68        Cu73 1.951       .   S
O68         C78 1.250       .   A
O69        Cu74 1.951       .   S
O69         C78 1.250       .   A
O70        Cu74 1.951       .   S
O70         C77 1.251       .   A
O71        Cu74 1.951       .   S
O71         C76 1.250       .   A
O72        Cu74 1.951       .   S
O72         C75 1.250       .   A
Cu73       Cu74 2.630       .   S
C75        C123 1.356       .   S
C76        C133 1.356       .   S
C77        C193 1.356       .   S
C78        C183 1.356       .   S
C189       C190 1.540       .   A
C189       C194 1.540       .   A
C189       H195 1.140       .   S
C190       C191 1.540       .   A
C191       C192 1.540       .   A
C191       H196 1.140       .   S
C192       C193 1.540       .   A
C192       H197 1.140       .   S
C193       C194 1.540       .   A
C194       H198 1.140       .   S
C179       C180 1.540       .   A
C179       C184 1.540       .   A
C179       H185 1.140       .   S
C180       C181 1.540       .   A
C181       C182 1.540       .   A
C181       H186 1.140       .   S
C182       C183 1.540       .   A
C182       H187 1.140       .   S
C183       C184 1.540       .   A
C184       H188 1.140       .   S
C169       C170 1.540       .   A
C169       C174 1.540       .   A
C169       H175 1.140       .   S
C170       C171 1.540       .   A
C171       C172 1.540       .   A
C171       H176 1.140       .   S
C172       C173 1.540       .   A
C172       H177 1.140       .   S
C173       C174 1.540       .   A
C174       H178 1.140       .   S
C159       C160 1.540       .   A
C159       C164 1.540       .   A
C159       H165 1.140       .   S
C160       C161 1.540       .   A
C161       C162 1.540       .   A
C161       H166 1.140       .   S
C162       C163 1.540       .   A
C162       H167 1.140       .   S
C163       C164 1.540       .   A
C164       H168 1.140       .   S
C149       C150 1.540       .   A
C149       C154 1.540       .   A
C149       H155 1.140       .   S
C150       C151 1.540       .   A
C151       C152 1.540       .   A
C151       H156 1.140       .   S
C152       C153 1.540       .   A
C152       H157 1.140       .   S
C153       C154 1.540       .   A
C154       H158 1.140       .   S
C139       C140 1.540       .   A
C139       C144 1.540       .   A
C139       H145 1.140       .   S
C140       C141 1.540       .   A
C141       C142 1.540       .   A
C141       H146 1.140       .   S
C142       C143 1.540       .   A
C142       H147 1.140       .   S
C143       C144 1.540       .   A
C144       H148 1.140       .   S
C129       C130 1.540       .   A
C129       C134 1.540       .   A
C129       H135 1.140       .   S
C130       C131 1.540       .   A
C131       C132 1.540       .   A
C131       H136 1.140       .   S
C132       C133 1.540       .   A
C132       H137 1.140       .   S
C133       C134 1.540       .   A
C134       H138 1.140       .   S
C119       C120 1.540       .   A
C119       C124 1.540       .   A
C119       H125 1.140       .   S
C120       C121 1.540       .   A
C121       C122 1.540       .   A
C121       H126 1.140       .   S
C122       C123 1.540       .   A
C122       H127 1.140       .   S
C123       C124 1.540       .   A
C124       H128 1.140       .   S
C109       C110 1.540       .   A
C109       C114 1.540       .   A
C109       H115 1.140       .   S
C110       C111 1.540       .   A
C111       C112 1.540       .   A
C111       H116 1.140       .   S
C112       C113 1.540       .   A
C112       H117 1.140       .   S
C113       C114 1.540       .   A
C114       H118 1.140       .   S
C99        C100 1.540       .   A
C99        C104 1.540       .   A
C99        H105 1.140       .   S
C100       C101 1.540       .   A
C101       C102 1.540       .   A
C101       H106 1.140       .   S
C102       C103 1.540       .   A
C102       H107 1.140       .   S
C103       C104 1.540       .   A
C104       H108 1.140       .   S
C89         C90 1.540       .   A
C89         C94 1.540       .   A
C89         H95 1.140       .   S
C90         C91 1.540       .   A
C91         C92 1.540       .   A
C91         H96 1.140       .   S
C92         C93 1.540       .   A
C92         H97 1.140       .   S
C93         C94 1.540       .   A
C94         H98 1.140       .   S
C79         C80 1.540       .   A
C79         C84 1.540       .   A
C79         H85 1.140       .   S
C80         C81 1.540       .   A
C81         C82 1.540       .   A
C81         H86 1.140       .   S
C82         C83 1.540       .   A
C82         H87 1.140       .   S
C83         C84 1.540       .   A
C84         H88 1.140       .   S
