data_ffc_v1-4c_Cu_1_Ch_v2-4c_Cu_1_Ch_v3-3c_triazine_Ch_2-1B_4H_Ch
_audit_creation_date              2024-08-05
_audit_creation_method            'tobacco_3.0'
_symmetry_space_group_name_H-M    'P1'
_symmetry_Int_Tables_number       1
_symmetry_cell_setting            triclinic
loop_
_symmetry_equiv_pos_as_xyz
  x,y,z
_cell_length_a                    33.71429450022778
_cell_length_b                    33.71441276936469
_cell_length_c                    15.230386480587331
_cell_angle_alpha                 89.9998625663006
_cell_angle_beta                  90.00013235205266
_cell_angle_gamma                 90.00020311881774
loop_
_atom_site_label
_atom_site_type_symbol
_atom_site_fract_x
_atom_site_fract_y
_atom_site_fract_z
_atom_site_charge
O1         O    0.4670228732    0.9593044063    0.9099200508         -1.5287
O2         O    0.4670179081    0.0406912270    0.0900783524         -1.5385
O3         O    0.4670192944    0.0406954737    0.9099252103         -1.4247
O4         O    0.4670214798    0.9593001611    0.0900863244         -1.5088
O5         O    0.5329806986    0.9593045278    0.0900879213         -1.5044
O6         O    0.5329784058    0.0406939092    0.9099268104         -1.4169
O7         O    0.5329771268    0.0406955937    0.0900799492          -1.542
O8         O    0.5329820919    0.9593087730    0.9099216476         -1.5298
Cu9       Cu    0.4610012187    0.9999999918    0.0000031734          1.0456
Cu10      Cu    0.5389987813    0.0000000082    0.9999968266          1.0433
C11        C    0.5000040838    0.9473068543    0.8833559363          0.1333
C12        C    0.4999959162    0.0526931457    0.1166440637          0.1246
C13        C    0.4999959163    0.0526916782    0.8833602546          0.0461
C14        C    0.5000040837    0.9473083218    0.1166397454          0.1088
C15        C    0.4999926133    0.2536676194    0.5000035936          0.1978
N16        N    0.4999922673    0.2308285486    0.5875652891          0.1978
C17        C    0.4999915754    0.1851507546    0.5875650874          0.1978
N18        N    0.4999912294    0.1623120315    0.5000031901          0.1978
C19        C    0.4999915754    0.1851511023    0.4124414946          0.1978
N20        N    0.4999922673    0.2308288962    0.4124416963          0.1978
C21        C    0.5000248528    0.7463314942    0.5000006865          0.1978
N22        N    0.5000245068    0.7691704585    0.5875622756          0.1978
C23        C    0.5000238148    0.8148482525    0.5875618609          0.1978
N24        N    0.5000234689    0.8376870821    0.4999998571          0.1978
C25        C    0.5000238148    0.8148481178    0.4124382681          0.1978
N26        N    0.5000245068    0.7691703238    0.4124386828          0.1978
O27        O    0.0407029752    0.4670187255    0.9099213831         -1.5287
O28        O    0.9593158716    0.4670134962    0.0900797066         -1.5385
O29        O    0.9593116223    0.4670148825    0.9099265646         -1.4247
O30        O    0.0407072231    0.4670173322    0.0900876568         -1.5088
O31        O    0.0407031099    0.5329763196    0.0900885661         -1.5044
O32        O    0.9593134403    0.5329737625    0.9099274771         -1.4169
O33        O    0.9593117585    0.5329724836    0.0900806160          -1.542
O34        O    0.0406988620    0.5329777129    0.9099222925         -1.5298
Cu35      Cu    0.0000072251    0.4609969601    0.0000045794          1.0456
Cu36      Cu    0.0000075086    0.5389942490    0.9999974197          1.0433
C37        C    0.0527006957    0.4999998594    0.8833569216          0.1333
C38        C    0.9473140380    0.4999913497    0.1166450775          0.1246
C39        C    0.9473155021    0.4999913498    0.8833612684          0.0461
C40        C    0.0526992316    0.4999998593    0.1166407307          0.1088
C41        C    0.2536765525    0.5000159995    0.4999988719          0.1978
N42        N    0.2308375261    0.5000158481    0.5875604885          0.1978
C43        C    0.1851595719    0.5000155452    0.5875601290          0.1978
N44        N    0.1623206441    0.5000153938    0.4999981529          0.1978
C45        C    0.1851596704    0.5000155452    0.4124365362          0.1978
N46        N    0.2308376246    0.5000158481    0.4124368958          0.1978
C47        C    0.7463380100    0.4999824097    0.5000019318          0.1978
N48        N    0.7691771389    0.4999822583    0.5875636510          0.1978
C49        C    0.8148550931    0.4999819554    0.5875634965          0.1978
N50        N    0.8376939184    0.4999818040    0.5000016229          0.1978
C51        C    0.8148547895    0.4999819554    0.4124399038          0.1978
N52        N    0.7691768353    0.4999822583    0.4124400582          0.1978
O53        O    0.5000043547    0.4424501190    0.4270004981         -1.5287
O54        O    0.5000119032    0.5575480089    0.4270028551         -1.5385
O55        O    0.5575584927    0.5000007384    0.4270065538         -1.4247
O56        O    0.4424535718    0.5000015855    0.4269967839         -1.5088
O57        O    0.4424524629    0.5000012966    0.5730054576         -1.5044
O58        O    0.5575531885    0.4999962568    0.5730149888         -1.4169
O59        O    0.5000107943    0.5575477200    0.5730115289          -1.542
O60        O    0.5000032457    0.4424498301    0.5730091719         -1.5298
Cu61      Cu    0.5000087349    0.5000022255    0.4136775152          1.0456
Cu62      Cu    0.5000064140    0.4999956136    0.5863345117          1.0433
C63        C    0.5000034009    0.4254791394    0.5000064116          0.1333
C64        C    0.5000117480    0.5745186996    0.5000056154          0.1246
C65        C    0.5745250201    0.4999946935    0.5000064301          0.0461
C66        C    0.4254901289    0.5000031456    0.5000055969          0.1088
C177       C    0.6832672090    0.4607341198    0.4891421920          0.1978
C178       C    0.7061100054    0.4999852858    0.5000029851          0.1978
C179       C    0.6832743114    0.5392397176    0.5108649740          0.1978
C180       C    0.6375958211    0.5392429834    0.5108661699          0.1978
C181       C    0.6147530247    0.4999918174    0.5000053769          0.1978
C182       C    0.6375887186    0.4607373856    0.4891433879          0.1978
H183       H    0.7001715539    0.4316756443    0.4811014989          0.1978
H184       H    0.7001817455    0.5682945335    0.5189044382          0.1978
H185       H    0.6206914762    0.5683014589    0.5189068630          0.1978
H186       H    0.6206812846    0.4316825697    0.4811039238          0.1978
C167       C    0.3167452399    0.5000113760    0.4124340064          0.1978
C168       C    0.2939048503    0.5000129899    0.5000004465          0.1978
C169       C    0.3167429511    0.5000111864    0.5875686745          0.1978
C170       C    0.3624214414    0.5000077690    0.5875704624          0.1978
C171       C    0.3852618310    0.5000061552    0.5000040223          0.1978
C172       C    0.3624237302    0.5000079587    0.4124357943          0.1978
H173       H    0.2998391133    0.5000127111    0.3476107727          0.1978
H174       H    0.2998372987    0.5000123809    0.6523878135          0.1978
H175       H    0.3793275680    0.5000064340    0.6523936961          0.1978
H176       H    0.3793293827    0.5000067641    0.3476166553          0.1978
C157       C    0.1350093860    0.4604513217    0.3004506760          0.1978
C158       C    0.1510873441    0.5000115104    0.3363500360          0.1978
C159       C    0.1350074092    0.5395678910    0.3004379935          0.1978
C160       C    0.1028495161    0.5395640829    0.2286265910          0.1978
C161       C    0.0867715579    0.5000038941    0.1927272309          0.1978
C162       C    0.1028514928    0.4604475135    0.2286392734          0.1978
H163       H    0.1469127144    0.4311693256    0.3270349152          0.1978
H164       H    0.1469077478    0.5688514539    0.3270094357          0.1978
H165       H    0.0909461876    0.5688460789    0.2020423517          0.1978
H166       H    0.0909511542    0.4311639506    0.2020678312          0.1978
C147       C    0.1309461869    0.5000136679    0.8330109557          0.1978
C148       C    0.0867725604    0.5000038942    0.8072703007          0.1978
C149       C    0.0747565073    0.4999979287    0.7097178702          0.1978
C150       C    0.1069140806    0.5000017368    0.6379060949          0.1978
C151       C    0.1510877072    0.5000115104    0.6636467500          0.1978
C152       C    0.1631037603    0.5000174760    0.7611991804          0.1978
H153       H    0.1398411873    0.5000180839    0.9052250926          0.1978
H154       H    0.0420589657    0.4999906941    0.6906616416          0.1978
H155       H    0.0980190803    0.4999973207    0.5656919581          0.1978
H156       H    0.1958013019    0.5000247106    0.7802554091          0.1978
C137       C    0.8690685680    0.4999876518    0.1669899341          0.1978
C138       C    0.9132421406    0.4999889332    0.1927310518          0.1978
C139       C    0.9252579863    0.4999879339    0.2902836083          0.1978
C140       C    0.8931002594    0.4999856533    0.3620950472          0.1978
C141       C    0.8489266869    0.4999843719    0.3363539295          0.1978
C142       C    0.8369108412    0.4999853711    0.2388013730          0.1978
H143       H    0.8601737212    0.4999883916    0.0947757039          0.1978
H144       H    0.9579554879    0.4999888824    0.3093401794          0.1978
H145       H    0.9019951063    0.4999849135    0.4343092773          0.1978
H146       H    0.8042133395    0.4999844227    0.2197448019          0.1978
C127       C    0.9252580954    0.4999874122    0.7097198650          0.1978
C128       C    0.9132430793    0.4999889333    0.8072740298          0.1978
C129       C    0.8690702815    0.4999881737    0.8330165473          0.1978
C130       C    0.8369124998    0.4999858930    0.7612049000          0.1978
C131       C    0.8489275159    0.4999843719    0.6636507352          0.1978
C132       C    0.8931003137    0.4999851315    0.6379082177          0.1978
H133       H    0.9579574392    0.4999879744    0.6906637157          0.1978
H134       H    0.8601754114    0.4999892996    0.9052266081          0.1978
H135       H    0.8042131560    0.4999853308    0.7802610493          0.1978
H136       H    0.9019951838    0.4999840056    0.5656981569          0.1978
C117       C    0.4604813723    0.6832665881    0.4972353265          0.1978
C118       C    0.5000217844    0.7061034271    0.5000018406          0.1978
C119       C    0.5395587125    0.6832619359    0.5027696650          0.1978
C120       C    0.5395552285    0.6375836058    0.5027709754          0.1978
C121       C    0.5000148163    0.6147467668    0.5000044613          0.1978
C122       C    0.4604778883    0.6375882579    0.4972366369          0.1978
H123       H    0.4312137762    0.7001752244    0.4951864175          0.1978
H124       H    0.5688276363    0.7001649601    0.5048175164          0.1978
H125       H    0.5688228246    0.6206749695    0.5048198844          0.1978
H126       H    0.4312089645    0.6206852337    0.4951887855          0.1978
C107       C    0.5395549726    0.3167324066    0.5001013037          0.1978
C108       C    0.4999951391    0.2938950492    0.5000042534          0.1978
C109       C    0.4604381736    0.3167360219    0.4999079523          0.1978
C110       C    0.4604410417    0.3624143521    0.4999087015          0.1978
C111       C    0.5000008752    0.3852517096    0.5000057518          0.1978
C112       C    0.5395578406    0.3624107368    0.5001020529          0.1978
H113       H    0.5688374016    0.2998241541    0.5001725916          0.1978
H114       H    0.4311548736    0.2998326140    0.4998361129          0.1978
H115       H    0.4311586127    0.3793226047    0.4998374136          0.1978
H116       H    0.5688411407    0.3793141448    0.5001738923          0.1978
C97        C    0.4734530440    0.1236757136    0.1829242695          0.1978
C98        C    0.4999947996    0.0867647555    0.1927308078          0.1978
C99        C    0.5265355013    0.0820111659    0.2743493174          0.1978
C100       C    0.5265344475    0.1141685344    0.3461612888          0.1978
C101       C    0.4999926919    0.1510794925    0.3363547506          0.1978
C102       C    0.4734519902    0.1558330821    0.2547362409          0.1978
H103       H    0.4538060311    0.1271946046    0.1225053727          0.1978
H104       H    0.5461824544    0.0546896554    0.2816106652          0.1978
H105       H    0.5461814605    0.1106496434    0.4065801856          0.1978
H106       H    0.4538050371    0.1831545926    0.2474748931          0.1978
C87        C    0.4711323019    0.0836294143    0.7292095777          0.1978
C88        C    0.4999947997    0.0867635095    0.8072742414          0.1978
C89        C    0.5288562436    0.1220553116    0.8135273347          0.1978
C90        C    0.5288551897    0.1542130185    0.7417157643          0.1978
C91        C    0.4999926920    0.1510789233    0.6636511006          0.1978
C92        C    0.4711312480    0.1157871212    0.6573980073          0.1978
H93        H    0.4497673369    0.0575043141    0.7245806644          0.1978
H94        H    0.5502210753    0.1243762745    0.8713107192          0.1978
H95        H    0.5502201547    0.1803381187    0.7463446776          0.1978
H96        H    0.4497664164    0.1134661583    0.5996146228          0.1978
C77        C    0.4709206796    0.8840316833    0.3422155852          0.1978
C78        C    0.5000187394    0.8489205590    0.3363506775          0.1978
C79        C    0.5291120092    0.8459670955    0.2586740990          0.1978
C80        C    0.5291072190    0.8781247563    0.1868624282          0.1978
C81        C    0.5000091591    0.9132358806    0.1927273360          0.1978
C82        C    0.4709158894    0.9161893441    0.2704039144          0.1978
H83        H    0.4493841033    0.8862180134    0.3997164290          0.1978
H84        H    0.5506512104    0.8199778726    0.2543304569          0.1978
H85        H    0.5506437953    0.8759384262    0.1293615844          0.1978
H86        H    0.4493766882    0.9421785670    0.2747475565          0.1978
C67        C    0.5289099860    0.9163433632    0.7292703272          0.1978
C68        C    0.5000091591    0.9132351847    0.8072702924          0.1978
C69        C    0.4711131224    0.8779693749    0.8134588638 0.19090000000000001
C70        C    0.4711179126    0.8458117435    0.7416474699          0.1978
C71        C    0.5000187395    0.8489199220    0.6636475047          0.1978
C72        C    0.5289147762    0.8841857319    0.6574589333          0.1978
H73        H    0.5503005587    0.9424492224    0.7246891770          0.1978
H74        H    0.4497199186    0.8756675961    0.8711943567          0.1978
H75        H    0.4497273400    0.8197058843    0.7462286202          0.1978
H76        H    0.5503079801    0.8864875106    0.5997234404          0.1978
loop_
_geom_bond_atom_site_label_1
_geom_bond_atom_site_label_2
_geom_bond_distance
_geom_bond_site_symmetry_2
_ccdc_geom_bond_type
O1          Cu9 1.951       .   S
O1          C11 1.250       .   A
O2          Cu9 1.951       .   S
O2          C12 1.250       .   A
O3          Cu9 1.951       .   S
O3          C13 1.250       .   A
O4          Cu9 1.951       .   S
O4          C14 1.250       .   A
O5         Cu10 1.951       .   S
O5          C14 1.250       .   A
O6         Cu10 1.951       .   S
O6          C13 1.251       .   A
O7         Cu10 1.951       .   S
O7          C12 1.250       .   A
O8         Cu10 1.951       .   S
O8          C11 1.250       .   A
Cu9        Cu10 2.630       .   S
C11         C68 1.632       .   S
C12         C98 1.632       .   S
C13         C88 1.632       .   S
C14         C81 1.632       .   S
C15         N16 1.540       .   A
C15         N20 1.540       .   A
C15        C108 1.356       .   S
N16         C17 1.540       .   A
C17         N18 1.540       .   A
C17         C91 1.632   1_556   S
N18         C19 1.540       .   A
C19         N20 1.540       .   A
C19        C101 1.632       .   S
C21         N22 1.540       .   A
C21         N26 1.540       .   A
C21        C118 1.356       .   S
N22         C23 1.540       .   A
C23         N24 1.540       .   A
C23         C71 1.632   1_566   S
N24         C25 1.540       .   A
C25         N26 1.540       .   A
C25         C78 1.632   1_565   S
O27        Cu35 1.951       .   S
O27         C37 1.250       .   A
O28        Cu35 1.951       .   S
O28         C38 1.250       .   A
O29        Cu35 1.951       .   S
O29         C39 1.250       .   A
O30        Cu35 1.951       .   S
O30         C40 1.250       .   A
O31        Cu36 1.951       .   S
O31         C40 1.250       .   A
O32        Cu36 1.951       .   S
O32         C39 1.251       .   A
O33        Cu36 1.951       .   S
O33         C38 1.250       .   A
O34        Cu36 1.951       .   S
O34         C37 1.250       .   A
Cu35       Cu36 2.630       .   S
C37        C148 1.632       .   S
C38        C138 1.632       .   S
C39        C128 1.632       .   S
C40        C161 1.632       .   S
C41         N42 1.540       .   A
C41         N46 1.540       .   A
C41        C168 1.356       .   S
N42         C43 1.540       .   A
C43         N44 1.540       .   A
C43        C151 1.632   1_556   S
N44         C45 1.540       .   A
C45         N46 1.540       .   A
C45        C158 1.632       .   S
C47         N48 1.540       .   A
C47         N52 1.540       .   A
C47        C178 1.356       .   S
N48         C49 1.540       .   A
C49         N50 1.540       .   A
C49        C131 1.632   1_656   S
N50         C51 1.540       .   A
C51         N52 1.540       .   A
C51        C141 1.632   1_655   S
O53        Cu61 1.951       .   S
O53         C63 1.250       .   A
O54        Cu61 1.951       .   S
O54         C64 1.250       .   A
O55        Cu61 1.951       .   S
O55         C65 1.250       .   A
O56        Cu61 1.951       .   S
O56         C66 1.250       .   A
O57        Cu62 1.951       .   S
O57         C66 1.250       .   A
O58        Cu62 1.951       .   S
O58         C65 1.251       .   A
O59        Cu62 1.951       .   S
O59         C64 1.250       .   A
O60        Cu62 1.951       .   S
O60         C63 1.250       .   A
Cu61       Cu62 2.630       .   S
C63        C111 1.356       .   S
C64        C121 1.356       .   S
C65        C181 1.356       .   S
C66        C171 1.356       .   S
C177       C178 1.540       .   A
C177       C182 1.540       .   A
C177       H183 1.140       .   S
C178       C179 1.540       .   A
C179       C180 1.540       .   A
C179       H184 1.140       .   S
C180       C181 1.540       .   A
C180       H185 1.140       .   S
C181       C182 1.540       .   A
C182       H186 1.140       .   S
C167       C168 1.540       .   A
C167       C172 1.540       .   A
C167       H173 1.140       .   S
C168       C169 1.540       .   A
C169       C170 1.540       .   A
C169       H174 1.140       .   S
C170       C171 1.540       .   A
C170       H175 1.140       .   S
C171       C172 1.540       .   A
C172       H176 1.140       .   S
C157       C158 1.540       .   A
C157       C162 1.540       .   A
C157       H163 1.140       .   S
C158       C159 1.540       .   A
C159       C160 1.540       .   A
C159       H164 1.140       .   S
C160       C161 1.540       .   A
C160       H165 1.140       .   S
C161       C162 1.540       .   A
C162       H166 1.140       .   S
C147       C148 1.540       .   A
C147       C152 1.540       .   A
C147       H153 1.140       .   S
C148       C149 1.540       .   A
C149       C150 1.540       .   A
C149       H154 1.140       .   S
C150       C151 1.540       .   A
C150       H155 1.140       .   S
C151       C152 1.540       .   A
C152       H156 1.140       .   S
C137       C138 1.540       .   A
C137       C142 1.540       .   A
C137       H143 1.140       .   S
C138       C139 1.540       .   A
C139       C140 1.540       .   A
C139       H144 1.140       .   S
C140       C141 1.540       .   A
C140       H145 1.140       .   S
C141       C142 1.540       .   A
C142       H146 1.140       .   S
C127       C128 1.540       .   A
C127       C132 1.540       .   A
C127       H133 1.140       .   S
C128       C129 1.540       .   A
C129       C130 1.540       .   A
C129       H134 1.140       .   S
C130       C131 1.540       .   A
C130       H135 1.140       .   S
C131       C132 1.540       .   A
C132       H136 1.140       .   S
C117       C118 1.540       .   A
C117       C122 1.540       .   A
C117       H123 1.140       .   S
C118       C119 1.540       .   A
C119       C120 1.540       .   A
C119       H124 1.140       .   S
C120       C121 1.540       .   A
C120       H125 1.140       .   S
C121       C122 1.540       .   A
C122       H126 1.140       .   S
C107       C108 1.540       .   A
C107       C112 1.540       .   A
C107       H113 1.140       .   S
C108       C109 1.540       .   A
C109       C110 1.540       .   A
C109       H114 1.140       .   S
C110       C111 1.540       .   A
C110       H115 1.140       .   S
C111       C112 1.540       .   A
C112       H116 1.140       .   S
C97         C98 1.540       .   A
C97        C102 1.540       .   A
C97        H103 1.140       .   S
C98         C99 1.540       .   A
C99        C100 1.540       .   A
C99        H104 1.140       .   S
C100       C101 1.540       .   A
C100       H105 1.140       .   S
C101       C102 1.540       .   A
C102       H106 1.140       .   S
C87         C88 1.540       .   A
C87         C92 1.540       .   A
C87         H93 1.140       .   S
C88         C89 1.540       .   A
C89         C90 1.540       .   A
C89         H94 1.140       .   S
C90         C91 1.540       .   A
C90         H95 1.140       .   S
C91         C92 1.540       .   A
C92         H96 1.140       .   S
C77         C78 1.540       .   A
C77         C82 1.540       .   A
C77         H83 1.140       .   S
C78         C79 1.540       .   A
C79         C80 1.540       .   A
C79         H84 1.140       .   S
C80         C81 1.540       .   A
C80         H85 1.140       .   S
C81         C82 1.540       .   A
C82         H86 1.140       .   S
C67         C68 1.540       .   A
C67         C72 1.540       .   A
C67         H73 1.140       .   S
C68         C69 1.540       .   A
C69         C70 1.540       .   A
C69         H74 1.140       .   S
C70         C71 1.540       .   A
C70         H75 1.140       .   S
C71         C72 1.540       .   A
C72         H76 1.140       .   S
