data_ffc_v1-4c_Cu_1_Ch_v2-4c_B_Ch_v3-3c_triazine_Ch_2-1B_4H_Ch
_audit_creation_date              2024-08-05
_audit_creation_method            'tobacco_3.0'
_symmetry_space_group_name_H-M    'P1'
_symmetry_Int_Tables_number       1
_symmetry_cell_setting            triclinic
loop_
_symmetry_equiv_pos_as_xyz
  x,y,z
_cell_length_a                    31.380239547976874
_cell_length_b                    31.37957605659511
_cell_length_c                    15.20213613393503
_cell_angle_alpha                 89.9966525933869
_cell_angle_beta                  90.00363752102298
_cell_angle_gamma                 80.4512353930924
loop_
_atom_site_label
_atom_site_type_symbol
_atom_site_fract_x
_atom_site_fract_y
_atom_site_fract_z
_atom_site_charge
O1         O    0.4749297458    0.9536039838    0.9097542462         -1.5452
O2         O    0.4550405449    0.0421170748    0.0902358306         -1.5551
O3         O    0.4550408316    0.0421224402    0.9097479069         -1.4412
O4         O    0.4749294513    0.9535986195    0.0902553259         -1.5254
O5         O    0.5449591606    0.9578775610    0.0902652492         -1.5209
O6         O    0.5250718760    0.0463949241    0.9097578341         -1.4334
O7         O    0.5250702542    0.0463960162    0.0902457538         -1.5585
O8         O    0.5449594551    0.9578829252    0.9097641694         -1.5463
Cu9       Cu    0.4585938881    0.9974728494    0.9999982576          1.0456
Cu10      Cu    0.5414061119    0.0025271506    0.0000017424          1.0433
C11        C    0.5128780024    0.9426930727    0.8831466258          0.1167
C12        C    0.4871219976    0.0573069273    0.1168533742          0.1081
C13        C    0.4871221651    0.0573061820    0.8831360506          0.0296
C14        C    0.5128778349    0.9426938180    0.1168639494          0.0923
C15        C    0.4487243390    0.2772486852    0.4999731555          0.1812
N16        N    0.4487243257    0.2527090538    0.5876989841          0.1812
C17        C    0.4487242991    0.2036325507    0.5877016136          0.1812
N18        N    0.4487242858    0.1790956789    0.4999784145          0.1812
C19        C    0.4487242991    0.2036353102    0.4122525859          0.1812
N20        N    0.4487243257    0.2527118134    0.4122499564          0.1812
C21        C    0.5512738206    0.7227519385    0.5000271647          0.1812
N22        N    0.5512738073    0.7472888741    0.5877502931          0.1812
C23        C    0.5512737806    0.7963653861    0.5877475222          0.1812
N24        N    0.5512737673    0.8209049625    0.5000216229          0.1812
C25        C    0.5512737806    0.7963680269    0.4122984945          0.1812
N26        N    0.5512738073    0.7472915150    0.4123012654          0.1812
O27        O    0.0421169542    0.4550400484    0.9097644309         -1.5452
O28        O    0.9536056480    0.4749287550    0.0902452363         -1.5551
O29        O    0.9536004929    0.4749314058    0.9097573122         -1.4412
O30        O    0.0421221072    0.4550373906    0.0902655110         -1.5254
O31        O    0.0463999560    0.5250688058    0.0902588881         -1.5209
O32        O    0.9578847852    0.5449612571    0.9097506934         -1.4334
O33        O    0.9578834968    0.5449601702    0.0902386134         -1.5585
O34        O    0.0463948030    0.5250714636    0.9097578080         -1.5463
Cu35      Cu    0.9974681229    0.4585942467    0.0000095628          1.0456
Cu36      Cu    0.0025323281    0.5414059719    0.9999934815          1.0433
C37        C    0.0573061100    0.4871242727    0.8831486520          0.1167
C38        C    0.9426943410    0.5128759459    0.1168543922          0.1081
C39        C    0.9426951256    0.5128757696    0.8831370686          0.0296
C40        C    0.0573053254    0.4871244490    0.1168659757          0.0923
C41        C    0.2772444651    0.4487340707    0.5000311690          0.1812
N42        N    0.2527082005    0.4487340777    0.5877542210          0.1812
C43        C    0.2036327283    0.4487340915    0.5877512974          0.1812
N44        N    0.1790935207    0.4487340984    0.5000253217          0.1812
C45        C    0.2036297852    0.4487340915    0.4123022696          0.1812
N46        N    0.2527052575    0.4487340777    0.4123051933          0.1812
C47        C    0.7227559378    0.5512667908    0.4999723339          0.1812
N48        N    0.7472951343    0.5512667977    0.5876983202          0.1812
C49        C    0.7963706019    0.5512668115    0.5877012649          0.1812
N50        N    0.8209068731    0.5512668184    0.4999782234          0.1812
C51        C    0.7963676766    0.5512668115    0.4122522371          0.1812
N52        N    0.7472922089    0.5512667977    0.4122492924          0.1812
C53        C    0.4531697381    0.4911655370    0.5000058872         -0.7929
C54        C    0.4911646192    0.4531711477    0.4999971382         -0.7933
C55        C    0.5379951526    0.4620055792    0.4999925760         -0.9985
C56        C    0.5468308047    0.5088344000    0.4999967627         -0.7929
C57        C    0.5088359235    0.5468287893    0.5000055117         -0.7933
C58        C    0.4620053902    0.5379943578    0.5000100739         -0.9985
H59        H    0.4338772364    0.5661261046    0.5000165514         -0.7729
H60        H    0.5661233063    0.4338738324    0.4999860986         -0.7729
C171       C    0.6578048227    0.5355800505    0.5877114105          0.1812
C172       C    0.6807937573    0.5411456921    0.4999781608          0.1812
C173       C    0.6577823059    0.5356162369    0.4122512985          0.1812
C174       C    0.6117819198    0.5245211403    0.4122576861          0.1812
C175       C    0.5887929852    0.5189554987    0.4999909359          0.1812
C176       C    0.6118044366    0.5244849539    0.5877177981          0.1812
H177       H    0.6748392738    0.5396732835    0.6526520748          0.1812
H178       H    0.6747979054    0.5397357300    0.3473086826          0.1812
H179       H    0.5947474687    0.5204279073    0.3473170219          0.1812
H180       H    0.5947888371    0.5203654608    0.6526604141          0.1812
C161       C    0.3422016353    0.4644048122    0.4122917714          0.1812
C162       C    0.3192066259    0.4588549362    0.5000251387          0.1812
C163       C    0.3422120922    0.4643999278    0.5877518954          0.1812
C164       C    0.3882125679    0.4754947955    0.5877452848          0.1812
C165       C    0.4112075772    0.4810446716    0.5000119175          0.1812
C166       C    0.3882021110    0.4754996800    0.4122851608          0.1812
H167       H    0.3251716148    0.4603000782    0.3473511853          0.1812
H168       H    0.3251919960    0.4602921048    0.6526945984          0.1812
H169       H    0.4052425884    0.4795995296    0.6526858709          0.1812
H170       H    0.4052222071    0.4796075030    0.3473424578          0.1812
C151       C    0.1256594677    0.4333118963    0.1951448676          0.1812
C152       C    0.0952181667    0.4771774617    0.1934138703          0.1812
C153       C    0.1000262544    0.5117948356    0.2628531254          0.1812
C154       C    0.1352756429    0.5025466441    0.3340233777          0.1812
C155       C    0.1657169439    0.4586810787    0.3357543749          0.1812
C156       C    0.1609088563    0.4240637048    0.2663151199          0.1812
H157       H    0.1221002340    0.4076860481    0.1437417827          0.1812
H158       H    0.0774938637    0.5442650668    0.2615740449          0.1812
H159       H    0.1388348766    0.5281724923    0.3854264626          0.1812
H160       H    0.1834412469    0.3915934737    0.2675942004          0.1812
C141       C    0.1113404369    0.4304118641    0.7765754647          0.1812
C142       C    0.0952202757    0.4771771304    0.8066093020          0.1812
C143       C    0.1143492579    0.5146944484    0.7654838120          0.1812
C144       C    0.1495984014    0.5054465001    0.6943244847          0.1812
C145       C    0.1657185626    0.4586812338    0.6642906474          0.1812
C146       C    0.1465895803    0.4211639158    0.7054161374          0.1812
H147       H    0.0971800215    0.4026393040    0.8070190093          0.1812
H148       H    0.1024177773    0.5493111196    0.7877134501          0.1812
H149       H    0.1637588168    0.5332190602    0.6638809401          0.1812
H150       H    0.1585210610    0.3865472445    0.6831864993          0.1812
C131       C    0.8567356863    0.5301984818    0.1670040113          0.1812
C132       C    0.9047801208    0.5228232767    0.1933939552          0.1812
C133       C    0.9175754432    0.5246961736    0.2909432586          0.1812
C134       C    0.8823263312    0.5339442756    0.3621026181          0.1812
C135       C    0.8342818968    0.5413194807    0.3357126742          0.1812
C136       C    0.8214865743    0.5394465838    0.2381633708          0.1812
H137       H    0.8472638243    0.5288120516    0.0947921893          0.1812
H138       H    0.9531381678    0.5192371322    0.3104800884          0.1812
H139       H    0.8917981933    0.5353307058    0.4343144401          0.1812
H140       H    0.7859238498    0.5449056251    0.2186265410          0.1812
C121       C    0.8580681956    0.5170600055    0.8276071142          0.1812
C122       C    0.9047822808    0.5228229307    0.8065893274          0.1812
C123       C    0.9162469489    0.5378342157    0.7144013799          0.1812
C124       C    0.8809975319    0.5470825756    0.6432312193          0.1812
C125       C    0.8342834467    0.5413196504    0.6642490061          0.1812
C126       C    0.8228187786    0.5263083654    0.7564369536          0.1812
H127       H    0.8495813634    0.5059477556    0.8958501402          0.1812
H128       H    0.9508249115    0.5421003876    0.6988411714          0.1812
H129       H    0.8894843641    0.5581948255    0.5749881933          0.1844
H130       H    0.7882408160    0.5220421935    0.7719971621          0.1812
C111       C    0.5776159289    0.6413435927    0.5000160337          0.1812
C112       C    0.5411515928    0.6807909951    0.5000220001          0.1812
C113       C    0.4935905359    0.6742377663    0.5000223046          0.1812
C114       C    0.4824938152    0.6282371351    0.5000166427          0.1812
C115       C    0.5189581513    0.5887897327    0.5000106764          0.1812
C116       C    0.5665192082    0.5953429615    0.5000103719          0.1812
H117       H    0.6128234645    0.6461946841    0.5000158083          0.1812
H118       H    0.4665982587    0.7034363860    0.5000267209          0.1812
H119       H    0.4472862796    0.6233860437    0.5000168681          0.1812
H120       H    0.5935114855    0.5661443418    0.5000059556          0.1812
C101       C    0.4643909673    0.3422077480    0.5877120719          0.1812
C102       C    0.4588471495    0.3192095237    0.4999788758          0.1812
C103       C    0.4644006613    0.3422116921    0.4122519507          0.1812
C104       C    0.4754979910    0.3882120849    0.4122582218          0.1812
C105       C    0.4810418088    0.4112103093    0.4999914179          0.1812
C106       C    0.4754882970    0.3882081408    0.5877183430          0.1812
H107       H    0.4602799261    0.3251801688    0.6526527827          0.1812
H108       H    0.4602973228    0.3251892161    0.3473093745          0.1812
H109       H    0.4796090322    0.4052396641    0.3473175110          0.1812
H110       H    0.4795916355    0.4052306168    0.6526609192          0.1812
C91        C    0.4523765940    0.0868439447    0.2773533908          0.1812
C92        C    0.4771729115    0.0952215351    0.1933931748          0.1812
C93        C    0.4927194658    0.1388487091    0.1805927641          0.1812
C94        C    0.4834697026    0.1740982928    0.2517525693          0.1812
C95        C    0.4586733852    0.1657207025    0.3357127853          0.1812
C96        C    0.4431268308    0.1220935284    0.3485131961          0.1812
H97        H    0.4408681058    0.0545485042    0.2868290196          0.1812
H98        H    0.5110741039    0.1450511524    0.1184453055          0.1812
H99        H    0.4949781909    0.2063937333    0.2422769405          0.1812
H100       H    0.4247721928    0.1158910852    0.4106606546          0.1812
C81        C    0.5062098609    0.0932145773    0.7245262461          0.1812
C82        C    0.4771732544    0.0952194339    0.8065888067          0.1812
C83        C    0.4388866256    0.1324742230    0.8174813927          0.1812
C84        C    0.4296366033    0.1677241554    0.7463114181          0.1812
C85        C    0.4586732097    0.1657192988    0.6642488574          0.1812
C86        C    0.4969598385    0.1284645097    0.6533562715          0.1812
H87        H    0.5345519108    0.0656363568    0.7164629033          0.1812
H88        H    0.4173926211    0.1339593897    0.8782241531          0.1812
H89        H    0.4012945534    0.1953023759    0.7543747609          0.1812
H90        H    0.5184538431    0.1269793430    0.5926135110          0.1812
C71        C    0.4880823016    0.8773576648    0.2172348205          0.1812
C72        C    0.5228262256    0.9047808011    0.1934110490          0.1812
C73        C    0.5668197318    0.8969540588    0.2407574504          0.1812
C74        C    0.5760693140    0.8617041802    0.3119276234          0.1812
C75        C    0.5413253899    0.8342810439    0.3357513949          0.1812
C76        C    0.4973318837    0.8421077862    0.2884049934          0.1812
H77        H    0.4555156801    0.8831514870    0.1821861857          0.1812
H78        H    0.5925384532    0.9172523191    0.2231246778          0.1812
H79        H    0.6086359355    0.8559103580    0.3469762582          0.1812
H80        H    0.4716131623    0.8218095258    0.3060377660          0.1812
C61        C    0.4894470454    0.9019058201    0.7335001599          0.1812
C62        C    0.5228265615    0.9047787575    0.8066070796          0.1812
C63        C    0.5654554077    0.8724021668    0.8085539937          0.1812
C64        C    0.5747047377    0.8371526387    0.7373939881          0.1812
C65        C    0.5413252215    0.8342797012    0.6642870683          0.1812
C66        C    0.4986963754    0.8666562919    0.6623401542          0.1812
H67        H    0.4578906268    0.9258729067    0.7320589377          0.1812
H68        H    0.5901641560    0.8745276803    0.8626675375          0.1812
H69        H    0.6062611563    0.8131855521    0.7388352102          0.1812
H70        H    0.4739876271    0.8645307785    0.6082266104          0.1812
loop_
_geom_bond_atom_site_label_1
_geom_bond_atom_site_label_2
_geom_bond_distance
_geom_bond_site_symmetry_2
_ccdc_geom_bond_type
O1          Cu9 1.951       .   S
O1          C11 1.250       .   A
O2          Cu9 1.951       .   S
O2          C12 1.250       .   A
O3          Cu9 1.951       .   S
O3          C13 1.250       .   A
O4          Cu9 1.951       .   S
O4          C14 1.250       .   A
O5         Cu10 1.951       .   S
O5          C14 1.250       .   A
O6         Cu10 1.951       .   S
O6          C13 1.251       .   A
O7         Cu10 1.951       .   S
O7          C12 1.250       .   A
O8         Cu10 1.951       .   S
O8          C11 1.250       .   A
Cu9        Cu10 2.630       .   S
C11         C62 1.656       .   S
C12         C92 1.656       .   S
C13         C82 1.656       .   S
C14         C72 1.656       .   S
C15         N16 1.540       .   A
C15         N20 1.540       .   A
C15        C102 1.405       .   S
N16         C17 1.540       .   A
C17         N18 1.540       .   A
C17         C85 1.656   1_556   S
N18         C19 1.540       .   A
C19         N20 1.540       .   A
C19         C95 1.656       .   S
C21         N22 1.540       .   A
C21         N26 1.540       .   A
C21        C112 1.405       .   S
N22         C23 1.540       .   A
C23         N24 1.540       .   A
C23         C65 1.656   1_566   S
N24         C25 1.540       .   A
C25         N26 1.540       .   A
C25         C75 1.656   1_565   S
O27        Cu35 1.951       .   S
O27         C37 1.250       .   A
O28        Cu35 1.951       .   S
O28         C38 1.250       .   A
O29        Cu35 1.951       .   S
O29         C39 1.250       .   A
O30        Cu35 1.951       .   S
O30         C40 1.250       .   A
O31        Cu36 1.951       .   S
O31         C40 1.250       .   A
O32        Cu36 1.951       .   S
O32         C39 1.251       .   A
O33        Cu36 1.951       .   S
O33         C38 1.250       .   A
O34        Cu36 1.951       .   S
O34         C37 1.250       .   A
Cu35       Cu36 2.630       .   S
C37        C142 1.656       .   S
C38        C132 1.656       .   S
C39        C122 1.656       .   S
C40        C152 1.656       .   S
C41         N42 1.540       .   A
C41         N46 1.540       .   A
C41        C162 1.405       .   S
N42         C43 1.540       .   A
C43         N44 1.540       .   A
C43        C145 1.656   1_556   S
N44         C45 1.540       .   A
C45         N46 1.540       .   A
C45        C155 1.656       .   S
C47         N48 1.540       .   A
C47         N52 1.540       .   A
C47        C172 1.405       .   S
N48         C49 1.540       .   A
C49         N50 1.540       .   A
C49        C125 1.656   1_656   S
N50         C51 1.540       .   A
C51         N52 1.540       .   A
C51        C135 1.656   1_655   S
C53         C54 1.540       .   A
C53         C58 1.540       .   A
C53        C165 1.405       .   S
C54         C55 1.540       .   A
C54        C105 1.405       .   S
C55         C56 1.540       .   A
C55         H60 1.140       .   S
C56         C57 1.540       .   A
C56        C175 1.405       .   S
C57         C58 1.540       .   A
C57        C115 1.405       .   S
C58         H59 1.140       .   S
C171       C172 1.540       .   A
C171       C176 1.540       .   A
C171       H177 1.140       .   S
C172       C173 1.540       .   A
C173       C174 1.540       .   A
C173       H178 1.140       .   S
C174       C175 1.540       .   A
C174       H179 1.140       .   S
C175       C176 1.540       .   A
C176       H180 1.140       .   S
C161       C162 1.540       .   A
C161       C166 1.540       .   A
C161       H167 1.140       .   S
C162       C163 1.540       .   A
C163       C164 1.540       .   A
C163       H168 1.140       .   S
C164       C165 1.540       .   A
C164       H169 1.140       .   S
C165       C166 1.540       .   A
C166       H170 1.140       .   S
C151       C152 1.540       .   A
C151       C156 1.540       .   A
C151       H157 1.140       .   S
C152       C153 1.540       .   A
C153       C154 1.540       .   A
C153       H158 1.140       .   S
C154       C155 1.540       .   A
C154       H159 1.140       .   S
C155       C156 1.540       .   A
C156       H160 1.140       .   S
C141       C142 1.540       .   A
C141       C146 1.540       .   A
C141       H147 1.140       .   S
C142       C143 1.540       .   A
C143       C144 1.540       .   A
C143       H148 1.140       .   S
C144       C145 1.540       .   A
C144       H149 1.140       .   S
C145       C146 1.540       .   A
C146       H150 1.140       .   S
C131       C132 1.540       .   A
C131       C136 1.540       .   A
C131       H137 1.140       .   S
C132       C133 1.540       .   A
C133       C134 1.540       .   A
C133       H138 1.140       .   S
C134       C135 1.540       .   A
C134       H139 1.140       .   S
C135       C136 1.540       .   A
C136       H140 1.140       .   S
C121       C122 1.540       .   A
C121       C126 1.540       .   A
C121       H127 1.140       .   S
C122       C123 1.540       .   A
C123       C124 1.540       .   A
C123       H128 1.140       .   S
C124       C125 1.540       .   A
C124       H129 1.140       .   S
C125       C126 1.540       .   A
C126       H130 1.140       .   S
C111       C112 1.540       .   A
C111       C116 1.540       .   A
C111       H117 1.140       .   S
C112       C113 1.540       .   A
C113       C114 1.540       .   A
C113       H118 1.140       .   S
C114       C115 1.540       .   A
C114       H119 1.140       .   S
C115       C116 1.540       .   A
C116       H120 1.140       .   S
C101       C102 1.540       .   A
C101       C106 1.540       .   A
C101       H107 1.140       .   S
C102       C103 1.540       .   A
C103       C104 1.540       .   A
C103       H108 1.140       .   S
C104       C105 1.540       .   A
C104       H109 1.140       .   S
C105       C106 1.540       .   A
C106       H110 1.140       .   S
C91         C92 1.540       .   A
C91         C96 1.540       .   A
C91         H97 1.140       .   S
C92         C93 1.540       .   A
C93         C94 1.540       .   A
C93         H98 1.140       .   S
C94         C95 1.540       .   A
C94         H99 1.140       .   S
C95         C96 1.540       .   A
C96        H100 1.140       .   S
C81         C82 1.540       .   A
C81         C86 1.540       .   A
C81         H87 1.140       .   S
C82         C83 1.540       .   A
C83         C84 1.540       .   A
C83         H88 1.140       .   S
C84         C85 1.540       .   A
C84         H89 1.140       .   S
C85         C86 1.540       .   A
C86         H90 1.140       .   S
C71         C72 1.540       .   A
C71         C76 1.540       .   A
C71         H77 1.140       .   S
C72         C73 1.540       .   A
C73         C74 1.540       .   A
C73         H78 1.140       .   S
C74         C75 1.540       .   A
C74         H79 1.140       .   S
C75         C76 1.540       .   A
C76         H80 1.140       .   S
C61         C62 1.540       .   A
C61         C66 1.540       .   A
C61         H67 1.140       .   S
C62         C63 1.540       .   A
C63         C64 1.540       .   A
C63         H68 1.140       .   S
C64         C65 1.540       .   A
C64         H69 1.140       .   S
C65         C66 1.540       .   A
C66         H70 1.140       .   S
