data_ffc_v1-4c_Cu_1_Ch_v2-4c_B_Ch_v3-3c_B_Ch_2-1B_4H_Ch
_audit_creation_date              2024-08-05
_audit_creation_method            'tobacco_3.0'
_symmetry_space_group_name_H-M    'P1'
_symmetry_Int_Tables_number       1
_symmetry_cell_setting            triclinic
loop_
_symmetry_equiv_pos_as_xyz
  x,y,z
_cell_length_a                    31.380239547976874
_cell_length_b                    31.37957605659511
_cell_length_c                    15.20213613393503
_cell_angle_alpha                 89.9966525933869
_cell_angle_beta                  90.00363752102298
_cell_angle_gamma                 80.4512353930924
loop_
_atom_site_label
_atom_site_type_symbol
_atom_site_fract_x
_atom_site_fract_y
_atom_site_fract_z
_atom_site_charge
O1         O    0.4749297458    0.9536039838    0.9097542462         -1.5568
O2         O    0.4550405449    0.0421170748    0.0902358306         -1.5666
O3         O    0.4550408316    0.0421224402    0.9097479069         -1.4528
O4         O    0.4749294513    0.9535986195    0.0902553259         -1.5369
O5         O    0.5449591606    0.9578775610    0.0902652492         -1.5325
O6         O    0.5250718760    0.0463949241    0.9097578341          -1.445
O7         O    0.5250702542    0.0463960162    0.0902457538         -1.5701
O8         O    0.5449594551    0.9578829252    0.9097641694         -1.5579
Cu9       Cu    0.4585938881    0.9974728494    0.9999982576          1.0456
Cu10      Cu    0.5414061119    0.0025271506    0.0000017424          1.0433
C11        C    0.5128780024    0.9426930727    0.8831466258          0.1052
C12        C    0.4871219976    0.0573069273    0.1168533742          0.0966
C13        C    0.4871221651    0.0573061820    0.8831360506           0.018
C14        C    0.5128778349    0.9426938180    0.1168639494          0.0807
C15        C    0.4487243390    0.2772486852    0.4999731555          0.1697
C16        C    0.4487243257    0.2527090538    0.5876989841          0.1697
C17        C    0.4487242991    0.2036325507    0.5877016136          0.1697
C18        C    0.4487242858    0.1790956789    0.4999784145          0.1697
C19        C    0.4487242991    0.2036353102    0.4122525859          0.1697
C20        C    0.4487243257    0.2527118134    0.4122499564          0.1697
H21        H    0.4487243356    0.2708727120    0.6526494093          0.1697
H22        H    0.4487242660    0.1427663194    0.4999803610          0.1697
H23        H    0.4487243356    0.2708775147    0.3472975847          0.1697
C24        C    0.5512738206    0.7227519385    0.5000271647          0.1697
C25        C    0.5512738073    0.7472888741    0.5877502931          0.1697
C26        C    0.5512737806    0.7963653861    0.5877475222          0.1697
C27        C    0.5512737673    0.8209049625    0.5000216229          0.1697
C28        C    0.5512737806    0.7963680269    0.4122984945          0.1697
C29        C    0.5512738073    0.7472915150    0.4123012654          0.1697
H30        H    0.5512738171    0.7291232134    0.6527027172          0.1697
H31        H    0.5512737476    0.8572343285    0.5000195717          0.1697
H32        H    0.5512738171    0.7291278096    0.3473508926          0.1697
O33        O    0.0421169542    0.4550400484    0.9097644309         -1.5568
O34        O    0.9536056480    0.4749287550    0.0902452363         -1.5666
O35        O    0.9536004929    0.4749314058    0.9097573122         -1.4528
O36        O    0.0421221072    0.4550373906    0.0902655110         -1.5369
O37        O    0.0463999560    0.5250688058    0.0902588881         -1.5325
O38        O    0.9578847852    0.5449612571    0.9097506934          -1.445
O39        O    0.9578834968    0.5449601702    0.0902386134         -1.5701
O40        O    0.0463948030    0.5250714636    0.9097578080         -1.5579
Cu41      Cu    0.9974681229    0.4585942467    0.0000095628          1.0456
Cu42      Cu    0.0025323281    0.5414059719    0.9999934815          1.0433
C43        C    0.0573061100    0.4871242727    0.8831486520          0.1052
C44        C    0.9426943410    0.5128759459    0.1168543922          0.0966
C45        C    0.9426951256    0.5128757696    0.8831370686           0.018
C46        C    0.0573053254    0.4871244490    0.1168659757          0.0807
C47        C    0.2772444651    0.4487340707    0.5000311690          0.1697
C48        C    0.2527082005    0.4487340777    0.5877542210          0.1697
C49        C    0.2036327283    0.4487340915    0.5877512974          0.1697
C50        C    0.1790935207    0.4487340984    0.5000253217          0.1697
C51        C    0.2036297852    0.4487340915    0.4123022696          0.1697
C52        C    0.2527052575    0.4487340777    0.4123051933          0.1697
H53        H    0.2708735882    0.4487340725    0.6527067017          0.1697
H54        H    0.1427649243    0.4487341086    0.5000231574          0.1697
H55        H    0.2708684661    0.4487340725    0.3473548770          0.1697
C56        C    0.7227559378    0.5512667908    0.4999723339          0.1697
C57        C    0.7472951343    0.5512667977    0.5876983202          0.1697
C58        C    0.7963706019    0.5512668115    0.5877012649          0.1697
C59        C    0.8209068731    0.5512668184    0.4999782234          0.1697
C60        C    0.7963676766    0.5512668115    0.4122522371          0.1697
C61        C    0.7472922089    0.5512667977    0.4122492924          0.1697
H62        H    0.7291319208    0.5512667926    0.6526486287          0.1697
H63        H    0.8572354660    0.5512668286    0.4999804032          0.1697
H64        H    0.7291268295    0.5512667926    0.3472968040          0.1697
C65        C    0.4531697381    0.4911655370    0.5000058872         -0.8045
C66        C    0.4911646192    0.4531711477    0.4999971382         -0.8049
C67        C    0.5379951526    0.4620055792    0.4999925760         -1.0101
C68        C    0.5468308047    0.5088344000    0.4999967627         -0.8045
C69        C    0.5088359235    0.5468287893    0.5000055117         -0.8049
C70        C    0.4620053902    0.5379943578    0.5000100739         -1.0101
H71        H    0.4338772364    0.5661261046    0.5000165514         -0.7844
H72        H    0.5661233063    0.4338738324    0.4999860986         -0.7844
C183       C    0.6578048227    0.5355800505    0.5877114105          0.1697
C184       C    0.6807937573    0.5411456921    0.4999781608          0.1697
C185       C    0.6577823059    0.5356162369    0.4122512985          0.1697
C186       C    0.6117819198    0.5245211403    0.4122576861          0.1697
C187       C    0.5887929852    0.5189554987    0.4999909359          0.1697
C188       C    0.6118044366    0.5244849539    0.5877177981          0.1697
H189       H    0.6748392738    0.5396732835    0.6526520748          0.1697
H190       H    0.6747979054    0.5397357300    0.3473086826          0.1697
H191       H    0.5947474687    0.5204279073    0.3473170219          0.1697
H192       H    0.5947888371    0.5203654608    0.6526604141          0.1697
C173       C    0.3422016353    0.4644048122    0.4122917714          0.1697
C174       C    0.3192066259    0.4588549362    0.5000251387          0.1697
C175       C    0.3422120922    0.4643999278    0.5877518954          0.1697
C176       C    0.3882125679    0.4754947955    0.5877452848          0.1697
C177       C    0.4112075772    0.4810446716    0.5000119175          0.1697
C178       C    0.3882021110    0.4754996800    0.4122851608          0.1697
H179       H    0.3251716148    0.4603000782    0.3473511853          0.1697
H180       H    0.3251919960    0.4602921048    0.6526945984          0.1697
H181       H    0.4052425884    0.4795995296    0.6526858709          0.1697
H182       H    0.4052222071    0.4796075030    0.3473424578          0.1697
C163       C    0.1256594677    0.4333118963    0.1951448676          0.1697
C164       C    0.0952181667    0.4771774617    0.1934138703          0.1697
C165       C    0.1000262544    0.5117948356    0.2628531254          0.1697
C166       C    0.1352756429    0.5025466441    0.3340233777          0.1697
C167       C    0.1657169439    0.4586810787    0.3357543749          0.1697
C168       C    0.1609088563    0.4240637048    0.2663151199          0.1697
H169       H    0.1221002340    0.4076860481    0.1437417827          0.1697
H170       H    0.0774938637    0.5442650668    0.2615740449          0.1697
H171       H    0.1388348766    0.5281724923    0.3854264626          0.1697
H172       H    0.1834412469    0.3915934737    0.2675942004          0.1697
C153       C    0.1113404369    0.4304118641    0.7765754647          0.1697
C154       C    0.0952202757    0.4771771304    0.8066093020          0.1697
C155       C    0.1143492579    0.5146944484    0.7654838120          0.1697
C156       C    0.1495984014    0.5054465001    0.6943244847          0.1697
C157       C    0.1657185626    0.4586812338    0.6642906474          0.1697
C158       C    0.1465895803    0.4211639158    0.7054161374          0.1697
H159       H    0.0971800215    0.4026393040    0.8070190093          0.1697
H160       H    0.1024177773    0.5493111196    0.7877134501          0.1697
H161       H    0.1637588168    0.5332190602    0.6638809401          0.1697
H162       H    0.1585210610    0.3865472445    0.6831864993          0.1697
C143       C    0.8567356863    0.5301984818    0.1670040113          0.1697
C144       C    0.9047801208    0.5228232767    0.1933939552          0.1697
C145       C    0.9175754432    0.5246961736    0.2909432586          0.1697
C146       C    0.8823263312    0.5339442756    0.3621026181          0.1697
C147       C    0.8342818968    0.5413194807    0.3357126742          0.1697
C148       C    0.8214865743    0.5394465838    0.2381633708          0.1697
H149       H    0.8472638243    0.5288120516    0.0947921893          0.1697
H150       H    0.9531381678    0.5192371322    0.3104800884          0.1697
H151       H    0.8917981933    0.5353307058    0.4343144401          0.1697
H152       H    0.7859238498    0.5449056251    0.2186265410          0.1697
C133       C    0.8580681956    0.5170600055    0.8276071142          0.1697
C134       C    0.9047822808    0.5228229307    0.8065893274          0.1697
C135       C    0.9162469489    0.5378342157    0.7144013799          0.1697
C136       C    0.8809975319    0.5470825756    0.6432312193          0.1697
C137       C    0.8342834467    0.5413196504    0.6642490061          0.1697
C138       C    0.8228187786    0.5263083654    0.7564369536          0.1697
H139       H    0.8495813634    0.5059477556    0.8958501402          0.1697
H140       H    0.9508249115    0.5421003876    0.6988411714          0.1697
H141       H    0.8894843641    0.5581948255    0.5749881933          0.1697
H142       H    0.7882408160    0.5220421935    0.7719971621          0.1697
C123       C    0.5776159289    0.6413435927    0.5000160337          0.1697
C124       C    0.5411515928    0.6807909951    0.5000220001          0.1697
C125       C    0.4935905359    0.6742377663    0.5000223046          0.1697
C126       C    0.4824938152    0.6282371351    0.5000166427          0.1697
C127       C    0.5189581513    0.5887897327    0.5000106764          0.1697
C128       C    0.5665192082    0.5953429615    0.5000103719          0.1697
H129       H    0.6128234645    0.6461946841    0.5000158083          0.1697
H130       H    0.4665982587    0.7034363860    0.5000267209          0.1697
H131       H    0.4472862796    0.6233860437    0.5000168681          0.1697
H132       H    0.5935114855    0.5661443418    0.5000059556          0.1697
C113       C    0.4643909673    0.3422077480    0.5877120719          0.1697
C114       C    0.4588471495    0.3192095237    0.4999788758          0.1697
C115       C    0.4644006613    0.3422116921    0.4122519507          0.1697
C116       C    0.4754979910    0.3882120849    0.4122582218          0.1697
C117       C    0.4810418088    0.4112103093    0.4999914179          0.1697
C118       C    0.4754882970    0.3882081408    0.5877183430          0.1697
H119       H    0.4602799261    0.3251801688    0.6526527827          0.1697
H120       H    0.4602973228    0.3251892161    0.3473093745          0.1697
H121       H    0.4796090322    0.4052396641    0.3473175110          0.1697
H122       H    0.4795916355    0.4052306168    0.6526609192          0.1697
C103       C    0.4523765940    0.0868439447    0.2773533908          0.1697
C104       C    0.4771729115    0.0952215351    0.1933931748 0.16269999999999998
C105       C    0.4927194658    0.1388487091    0.1805927641          0.1697
C106       C    0.4834697026    0.1740982928    0.2517525693          0.1697
C107       C    0.4586733852    0.1657207025    0.3357127853          0.1697
C108       C    0.4431268308    0.1220935284    0.3485131961          0.1697
H109       H    0.4408681058    0.0545485042    0.2868290196          0.1697
H110       H    0.5110741039    0.1450511524    0.1184453055          0.1697
H111       H    0.4949781909    0.2063937333    0.2422769405          0.1697
H112       H    0.4247721928    0.1158910852    0.4106606546          0.1697
C93        C    0.5062098609    0.0932145773    0.7245262461          0.1697
C94        C    0.4771732544    0.0952194339    0.8065888067          0.1697
C95        C    0.4388866256    0.1324742230    0.8174813927          0.1697
C96        C    0.4296366033    0.1677241554    0.7463114181          0.1697
C97        C    0.4586732097    0.1657192988    0.6642488574          0.1697
C98        C    0.4969598385    0.1284645097    0.6533562715          0.1697
H99        H    0.5345519108    0.0656363568    0.7164629033          0.1697
H100       H    0.4173926211    0.1339593897    0.8782241531          0.1697
H101       H    0.4012945534    0.1953023759    0.7543747609          0.1697
H102       H    0.5184538431    0.1269793430    0.5926135110          0.1697
C83        C    0.4880823016    0.8773576648    0.2172348205          0.1697
C84        C    0.5228262256    0.9047808011    0.1934110490          0.1697
C85        C    0.5668197318    0.8969540588    0.2407574504          0.1697
C86        C    0.5760693140    0.8617041802    0.3119276234          0.1697
C87        C    0.5413253899    0.8342810439    0.3357513949          0.1697
C88        C    0.4973318837    0.8421077862    0.2884049934          0.1697
H89        H    0.4555156801    0.8831514870    0.1821861857          0.1697
H90        H    0.5925384532    0.9172523191    0.2231246778          0.1697
H91        H    0.6086359355    0.8559103580    0.3469762582          0.1697
H92        H    0.4716131623    0.8218095258    0.3060377660          0.1697
C73        C    0.4894470454    0.9019058201    0.7335001599          0.1697
C74        C    0.5228265615    0.9047787575    0.8066070796          0.1697
C75        C    0.5654554077    0.8724021668    0.8085539937          0.1697
C76        C    0.5747047377    0.8371526387    0.7373939881          0.1697
C77        C    0.5413252215    0.8342797012    0.6642870683          0.1697
C78        C    0.4986963754    0.8666562919    0.6623401542          0.1697
H79        H    0.4578906268    0.9258729067    0.7320589377          0.1697
H80        H    0.5901641560    0.8745276803    0.8626675375          0.1697
H81        H    0.6062611563    0.8131855521    0.7388352102          0.1697
H82        H    0.4739876271    0.8645307785    0.6082266104          0.1697
loop_
_geom_bond_atom_site_label_1
_geom_bond_atom_site_label_2
_geom_bond_distance
_geom_bond_site_symmetry_2
_ccdc_geom_bond_type
O1          Cu9 1.951       .   S
O1          C11 1.250       .   A
O2          Cu9 1.951       .   S
O2          C12 1.250       .   A
O3          Cu9 1.951       .   S
O3          C13 1.250       .   A
O4          Cu9 1.951       .   S
O4          C14 1.250       .   A
O5         Cu10 1.951       .   S
O5          C14 1.250       .   A
O6         Cu10 1.951       .   S
O6          C13 1.251       .   A
O7         Cu10 1.951       .   S
O7          C12 1.250       .   A
O8         Cu10 1.951       .   S
O8          C11 1.250       .   A
Cu9        Cu10 2.630       .   S
C11         C74 1.656       .   S
C12        C104 1.656       .   S
C13         C94 1.656       .   S
C14         C84 1.656       .   S
C15         C16 1.540       .   A
C15         C20 1.540       .   A
C15        C114 1.405       .   S
C16         C17 1.540       .   A
C16         H21 1.140       .   S
C17         C18 1.540       .   A
C17         C97 1.656   1_556   S
C18         C19 1.540       .   A
C18         H22 1.140       .   S
C19         C20 1.540       .   A
C19        C107 1.656       .   S
C20         H23 1.140       .   S
C24         C25 1.540       .   A
C24         C29 1.540       .   A
C24        C124 1.405       .   S
C25         C26 1.540       .   A
C25         H30 1.140       .   S
C26         C27 1.540       .   A
C26         C77 1.656   1_566   S
C27         C28 1.540       .   A
C27         H31 1.140       .   S
C28         C29 1.540       .   A
C28         C87 1.656   1_565   S
C29         H32 1.140       .   S
O33        Cu41 1.951       .   S
O33         C43 1.250       .   A
O34        Cu41 1.951       .   S
O34         C44 1.250       .   A
O35        Cu41 1.951       .   S
O35         C45 1.250       .   A
O36        Cu41 1.951       .   S
O36         C46 1.250       .   A
O37        Cu42 1.951       .   S
O37         C46 1.250       .   A
O38        Cu42 1.951       .   S
O38         C45 1.251       .   A
O39        Cu42 1.951       .   S
O39         C44 1.250       .   A
O40        Cu42 1.951       .   S
O40         C43 1.250       .   A
Cu41       Cu42 2.630       .   S
C43        C154 1.656       .   S
C44        C144 1.656       .   S
C45        C134 1.656       .   S
C46        C164 1.656       .   S
C47         C48 1.540       .   A
C47         C52 1.540       .   A
C47        C174 1.405       .   S
C48         C49 1.540       .   A
C48         H53 1.140       .   S
C49         C50 1.540       .   A
C49        C157 1.656   1_556   S
C50         C51 1.540       .   A
C50         H54 1.140       .   S
C51         C52 1.540       .   A
C51        C167 1.656       .   S
C52         H55 1.140       .   S
C56         C57 1.540       .   A
C56         C61 1.540       .   A
C56        C184 1.405       .   S
C57         C58 1.540       .   A
C57         H62 1.140       .   S
C58         C59 1.540       .   A
C58        C137 1.656   1_656   S
C59         C60 1.540       .   A
C59         H63 1.140       .   S
C60         C61 1.540       .   A
C60        C147 1.656   1_655   S
C61         H64 1.140       .   S
C65         C66 1.540       .   A
C65         C70 1.540       .   A
C65        C177 1.405       .   S
C66         C67 1.540       .   A
C66        C117 1.405       .   S
C67         C68 1.540       .   A
C67         H72 1.140       .   S
C68         C69 1.540       .   A
C68        C187 1.405       .   S
C69         C70 1.540       .   A
C69        C127 1.405       .   S
C70         H71 1.140       .   S
C183       C184 1.540       .   A
C183       C188 1.540       .   A
C183       H189 1.140       .   S
C184       C185 1.540       .   A
C185       C186 1.540       .   A
C185       H190 1.140       .   S
C186       C187 1.540       .   A
C186       H191 1.140       .   S
C187       C188 1.540       .   A
C188       H192 1.140       .   S
C173       C174 1.540       .   A
C173       C178 1.540       .   A
C173       H179 1.140       .   S
C174       C175 1.540       .   A
C175       C176 1.540       .   A
C175       H180 1.140       .   S
C176       C177 1.540       .   A
C176       H181 1.140       .   S
C177       C178 1.540       .   A
C178       H182 1.140       .   S
C163       C164 1.540       .   A
C163       C168 1.540       .   A
C163       H169 1.140       .   S
C164       C165 1.540       .   A
C165       C166 1.540       .   A
C165       H170 1.140       .   S
C166       C167 1.540       .   A
C166       H171 1.140       .   S
C167       C168 1.540       .   A
C168       H172 1.140       .   S
C153       C154 1.540       .   A
C153       C158 1.540       .   A
C153       H159 1.140       .   S
C154       C155 1.540       .   A
C155       C156 1.540       .   A
C155       H160 1.140       .   S
C156       C157 1.540       .   A
C156       H161 1.140       .   S
C157       C158 1.540       .   A
C158       H162 1.140       .   S
C143       C144 1.540       .   A
C143       C148 1.540       .   A
C143       H149 1.140       .   S
C144       C145 1.540       .   A
C145       C146 1.540       .   A
C145       H150 1.140       .   S
C146       C147 1.540       .   A
C146       H151 1.140       .   S
C147       C148 1.540       .   A
C148       H152 1.140       .   S
C133       C134 1.540       .   A
C133       C138 1.540       .   A
C133       H139 1.140       .   S
C134       C135 1.540       .   A
C135       C136 1.540       .   A
C135       H140 1.140       .   S
C136       C137 1.540       .   A
C136       H141 1.140       .   S
C137       C138 1.540       .   A
C138       H142 1.140       .   S
C123       C124 1.540       .   A
C123       C128 1.540       .   A
C123       H129 1.140       .   S
C124       C125 1.540       .   A
C125       C126 1.540       .   A
C125       H130 1.140       .   S
C126       C127 1.540       .   A
C126       H131 1.140       .   S
C127       C128 1.540       .   A
C128       H132 1.140       .   S
C113       C114 1.540       .   A
C113       C118 1.540       .   A
C113       H119 1.140       .   S
C114       C115 1.540       .   A
C115       C116 1.540       .   A
C115       H120 1.140       .   S
C116       C117 1.540       .   A
C116       H121 1.140       .   S
C117       C118 1.540       .   A
C118       H122 1.140       .   S
C103       C104 1.540       .   A
C103       C108 1.540       .   A
C103       H109 1.140       .   S
C104       C105 1.540       .   A
C105       C106 1.540       .   A
C105       H110 1.140       .   S
C106       C107 1.540       .   A
C106       H111 1.140       .   S
C107       C108 1.540       .   A
C108       H112 1.140       .   S
C93         C94 1.540       .   A
C93         C98 1.540       .   A
C93         H99 1.140       .   S
C94         C95 1.540       .   A
C95         C96 1.540       .   A
C95        H100 1.140       .   S
C96         C97 1.540       .   A
C96        H101 1.140       .   S
C97         C98 1.540       .   A
C98        H102 1.140       .   S
C83         C84 1.540       .   A
C83         C88 1.540       .   A
C83         H89 1.140       .   S
C84         C85 1.540       .   A
C85         C86 1.540       .   A
C85         H90 1.140       .   S
C86         C87 1.540       .   A
C86         H91 1.140       .   S
C87         C88 1.540       .   A
C88         H92 1.140       .   S
C73         C74 1.540       .   A
C73         C78 1.540       .   A
C73         H79 1.140       .   S
C74         C75 1.540       .   A
C75         C76 1.540       .   A
C75         H80 1.140       .   S
C76         C77 1.540       .   A
C76         H81 1.140       .   S
C77         C78 1.540       .   A
C78         H82 1.140       .   S
