data_ffc_v1-4c_pyrene_Ch_v2-4c_Cu_1_Ch_v3-3c_B_Ch_2-1B_4H_Ch
_audit_creation_date              2024-08-05
_audit_creation_method            'tobacco_3.0'
_symmetry_space_group_name_H-M    'P1'
_symmetry_Int_Tables_number       1
_symmetry_cell_setting            triclinic
loop_
_symmetry_equiv_pos_as_xyz
  x,y,z
_cell_length_a                    31.17790683919932
_cell_length_b                    31.178647841984322
_cell_length_c                    19.474231653584525
_cell_angle_alpha                 90.00705466606254
_cell_angle_beta                  90.0080404997413
_cell_angle_gamma                 90.00006610584822
loop_
_atom_site_label
_atom_site_type_symbol
_atom_site_fract_x
_atom_site_fract_y
_atom_site_fract_z
_atom_site_charge
C1         C    0.4999988972    0.0427745225    0.8418473953         -0.8398
C2         C    0.5000000000    0.0000004980    0.8023027574         -0.7784
C3         C    0.5000011028    0.9572249914    0.8418334586         -0.8396
C4         C    0.5000011028    0.9572235093    0.9209087978         -0.6301
C5         C    0.5000000000    0.0000007411    0.9604623304         -0.7575
C6         C    0.4999988972    0.0427762477    0.9209316292         -0.6321
C7         C    0.4999977944    0.0855502721    0.9604762671         -0.8576
C8         C    0.4999977944    0.0855519973    0.0395605010         -0.8576
C9         C    0.4999988972    0.0427764907    0.0790912022         -0.6321
C10        C    0.5000000000    0.9999992589    0.0395376696         -0.7575
C11        C    0.5000022056    0.9144480027    0.9604394990         -0.8589
C12        C    0.5000022056    0.9144497279    0.0395237329         -0.8589
C13        C    0.5000011028    0.9572237523    0.0790683708         -0.6301
C14        C    0.5000011028    0.9572254775    0.1581526047         -0.8396
C15        C    0.5000000000    0.9999995020    0.1976972426         -0.7784
C16        C    0.4999988972    0.0427750086    0.1581665414         -0.8398
H17        H    0.4999969780    0.1172152575    0.9312132805         -0.6575
H18        H    0.4999969780    0.1172157189    0.0688333423         -0.6575
H19        H    0.5000030220    0.8827842811    0.9311666577         -0.6558
H20        H    0.5000030220    0.8827847425    0.0687867195         -0.6558
H21        H    0.5000000000    0.0000017618    0.7437669295         -0.6913
H22        H    0.5000000000    0.9999982382    0.2562330705         -0.6913
C23        C    0.5682178296    0.1531367244    0.5685260811          0.2658
C24        C    0.5761490066    0.2018863877    0.5685306573          0.2658
C25        C    0.5801143560    0.2262597496    0.5000496608          0.2658
C26        C    0.5761485283    0.2018834481    0.4315640882          0.2658
C27        C    0.5682173513    0.1531337848    0.4315595120          0.2658
C28        C    0.5642520020    0.1287604230    0.5000405084          0.2658
H29        H    0.5790855949    0.2199363808    0.6192326384          0.2658
H30        H    0.5790839168    0.2199260666    0.3808703635          0.2658
H31        H    0.5583800252    0.0926678114    0.5000322519          0.2658
C32        C    0.5682269580    0.8468660740    0.4315102236          0.2658
C33        C    0.5642611304    0.8712422891    0.4999940845          0.2658
C34        C    0.5682265041    0.8468688635    0.5684767925          0.2658
C35        C    0.5761577055    0.7981192228    0.5684756396          0.2658
C36        C    0.5801235332    0.7737430076    0.4999917787          0.2658
C37        C    0.5761581594    0.7981164332    0.4315090707          0.2658
H38        H    0.5583891355    0.9073348840    0.4999998065          0.2658
H39        H    0.5790931121    0.7800765570    0.6191706312          0.2658
H40        H    0.5790947477    0.7800665040    0.3808083571          0.2658
C41        C    0.1241205589    0.5813451244    0.8418854967         -0.8398
C42        C    0.0813454958    0.5813441045    0.8023397409         -0.7784
C43        C    0.0385689944    0.5813430845    0.8418693241         -0.8396
C44        C    0.0385675561    0.5813430845    0.9209446632         -0.6301
C45        C    0.0813458266    0.5813441045    0.9604993139         -0.7575
C46        C    0.1241223280    0.5813451244    0.9209697307         -0.6321
C47        C    0.1668973911    0.5813461443    0.9605154865         -0.8576
C48        C    0.1668991602    0.5813461444    0.0395997205         -0.8576
C49        C    0.1241226588    0.5813451244    0.0791293037         -0.6321
C50        C    0.0813443883    0.5813441044    0.0395746530         -0.7575
C51        C    0.9957910547    0.5813420645    0.9604742465         -0.8589
C52        C    0.9957928238    0.5813420646    0.0395584804         -0.8589
C53        C    0.0385678869    0.5813430845    0.0791042363         -0.6301
C54        C    0.0385696560    0.5813430845    0.1581884702         -0.8396
C55        C    0.0813447191    0.5813441044    0.1977342261         -0.7784
C56        C    0.1241212205    0.5813451244    0.1582046428         -0.8398
H57        H    0.1985631130    0.5813468993    0.9312533275         -0.6575
H58        H    0.1985636507    0.5813468994    0.0688733894         -0.6575
H59        H    0.9641265642    0.5813413095    0.9312005776         -0.6558
H60        H    0.9641271020    0.5813413096    0.0688206394         -0.6511
H61        H    0.0813467272    0.5813441045    0.7438039129         -0.6913
H62        H    0.0813434877    0.5813441044    0.2562700540         -0.6913
C63        C    0.2344815864    0.5131293196    0.5685349358          0.2658
C64        C    0.2101043080    0.5170951643    0.5000507521          0.2658
C65        C    0.2344778188    0.5131299326    0.4315683667          0.2658
C66        C    0.2832286079    0.5051988561    0.4315701651          0.2658
C67        C    0.3076058862    0.5012330114    0.5000543488          0.2658
C68        C    0.2832323755    0.5051982432    0.5685367342          0.2658
H69        H    0.1740108629    0.5229670666    0.5000445522          0.2658
H70        H    0.3012713366    0.5022635547    0.3808754123          0.2658
H71        H    0.3012830919    0.5022616423    0.6192376869          0.2658
C72        C    0.9282112914    0.5131209058    0.4315125448          0.2658
C73        C    0.9525883668    0.5170867334    0.4999984884          0.2658
C74        C    0.9282146399    0.5131214506    0.5684791141          0.2658
C75        C    0.8794638378    0.5051903402    0.5684737963          0.2658
C76        C    0.8550867624    0.5012245126    0.4999878528          0.2658
C77        C    0.8794604893    0.5051897954    0.4315072270          0.2658
H78        H    0.9886818216    0.5229586609    0.5000072939          0.2658
H79        H    0.8614209491    0.5022550010    0.6191672465          0.2658
H80        H    0.8614099232    0.5022532072    0.3808049713          0.2658
O81        O    0.5813382982    0.4377654384    0.4429255005         -1.4606
O82        O    0.5813409965    0.5622242595    0.4429177610         -1.4705
O83        O    0.6435718528    0.4999992423    0.4429194637         -1.3566
O84        O    0.5191029072    0.4999949926    0.4429237857         -1.4407
O85        O    0.5191158344    0.5000070631    0.5571140965         -1.4363
O86        O    0.6435802435    0.5000067789    0.5571095886         -1.3488
O87        O    0.5813539237    0.5622363300    0.5571080718         -1.4739
O88        O    0.5813512253    0.4377775088    0.5571158113         -1.4617
Cu89      Cu    0.5813390134    0.4999971376    0.4325010842          1.0456
Cu90      Cu    0.5813532085    0.5000046308    0.5675324881          1.0433
C91        C    0.5813451359    0.4194203977    0.5000233018          0.2013
C92        C    0.5813470860    0.5805813707    0.5000102704          0.1927
C93        C    0.6619257053    0.4999996582    0.5000093676          0.1142
C94        C    0.5007665166    0.5000021102    0.5000242046          0.1769
C205       C    0.7834737414    0.4580006794    0.5011995087          0.2658
C206       C    0.8078997714    0.5009252950    0.4999931086          0.2658
C207       C    0.7829322638    0.5435367010    0.4987922102          0.2658
C208       C    0.7335387263    0.5432234914    0.4987977118          0.2658
C209       C    0.7091126963    0.5002988758    0.5000041118          0.2658
C210       C    0.7340802039    0.4576874698    0.5012050103          0.2658
H211       H    0.8019561821    0.4264571710    0.5020884854          0.2658
H212       H    0.8010115342    0.5753106974    0.4978991991          0.2658
H213       H    0.7150562856    0.5747669997    0.4979087350          0.2658
H214       H    0.7160009335    0.4259134733    0.5020980213          0.2658
C195       C    0.4288926895    0.5004861602    0.5685199835          0.2658
C196       C    0.4535797281    0.5003028044    0.5000315685          0.2658
C197       C    0.4288732400    0.5004342050    0.4315508617          0.2658
C198       C    0.3794797133    0.5007489614    0.4315585700          0.2658
C199       C    0.3547926747    0.5009323173    0.5000469850          0.2658
C200       C    0.3794991628    0.5008009166    0.5685276917          0.2658
H201       H    0.4471819079    0.5003888896    0.6192134937          0.2658
H202       H    0.4471457163    0.5002984898    0.3808538131          0.2658
H203       H    0.3611904949    0.5008462320    0.3808650598          0.2658
H204       H    0.3612266865    0.5009366318    0.6192247403          0.2658
C185       C    0.1352213479    0.5686925922    0.3045576229          0.2658
C186       C    0.1538797341    0.5629503682    0.2319192936          0.2658
C187       C    0.1979579058    0.5414953045    0.2222481754          0.2658
C188       C    0.2233776913    0.5257824647    0.2852153866          0.2658
C189       C    0.2047193051    0.5315246887    0.3578537160          0.2658
C190       C    0.1606411334    0.5529797525    0.3675248341          0.2658
H191       H    0.1025920520    0.5845749121    0.3117167624          0.2658
H192       H    0.2117701719    0.5372442517    0.1684812361          0.2658
H193       H    0.2560069873    0.5099001448    0.2780562472          0.2658
H194       H    0.1468288673    0.5572308052    0.4212917734          0.2658
C175       C    0.1770993183    0.5193757147    0.7704059910          0.2658
C176       C    0.1538811222    0.5629496743    0.7681722772          0.2658
C177       C    0.1560828766    0.5908111816    0.7029765025          0.2658
C178       C    0.1815028271    0.5750987293    0.6400144416          0.2658
C179       C    0.2047210232    0.5315247697    0.6422481554          0.2658
C180       C    0.2025192688    0.5036632624    0.7074439301          0.2658
H181       H    0.1754694481    0.4987509625    0.8186677982          0.2658
H182       H    0.1388969200    0.6230653534    0.7013210522          0.2658
H183       H    0.1831326972    0.5957234815    0.5917526344          0.2658
H184       H    0.2197052253    0.4714090906    0.7090993803          0.2658
C165       C    0.0324013139    0.5413316545    0.2921416900          0.2658
C166       C    0.0088097186    0.5629458586    0.2318947759          0.2658
C167       C    0.9597988783    0.5688461993    0.2346035934          0.2658
C168       C    0.9343796335    0.5531323359    0.2975593250          0.2658
C169       C    0.9579712288    0.5315181318    0.3578062392          0.2658
C170       C    0.0069820691    0.5256177911    0.3550974217          0.2658
H171       H    0.0686820658    0.5369638698    0.2901364615          0.2658
H172       H    0.9423349122    0.5848451431    0.1900091274          0.2658
H173       H    0.8980988816    0.5575001206    0.2995645536          0.2658
H174       H    0.0244460351    0.5096188473    0.3996918877          0.2658
C155       C    0.0059412620    0.5205822330    0.6492306162          0.2658
C156       C    0.9579726207    0.5315179885    0.6422010859          0.2658
C157       C    0.9354231759    0.5581680231    0.6981446888          0.2658
C158       C    0.9608423723    0.5738823021    0.7611178220          0.2658
C159       C    0.0088110137    0.5629465466    0.7681473523          0.2658
C160       C    0.0313604585    0.5362965120    0.7122037494          0.2658
H161       H    0.0226337082    0.5008542854    0.6078178192          0.2658
H162       H    0.8999162444    0.5662634739    0.6929432260          0.2658
H163       H    0.9441499261    0.5936102497    0.8025306190          0.2658
H164       H    0.0668673900    0.5282010612    0.7174052122          0.2658
C145       C    0.5378031688    0.7015868052    0.5000479339          0.2658
C146       C    0.5804224412    0.7265545544    0.4999962962          0.2658
C147       C    0.6233545819    0.7021299384    0.4999493869          0.2658
C148       C    0.6236674503    0.6527375731    0.4999541153          0.2658
C149       C    0.5810481779    0.6277698239    0.5000057530          0.2658
C150       C    0.5381160372    0.6521944399    0.5000526623          0.2658
H151       H    0.5060222335    0.7196673651    0.5000826590          0.2658
H152       H    0.6549025745    0.7206102046    0.4999111633          0.2658
H153       H    0.6554483856    0.6346570132    0.4999193902          0.2658
H154       H    0.5065680446    0.6337141737    0.5000908859          0.2658
C135       C    0.5804871979    0.2981360682    0.4315553997          0.2658
C136       C    0.5804150280    0.2734477196    0.5000432215          0.2658
C137       C    0.5806575761    0.2981517250    0.5685243031          0.2658
C138       C    0.5809722940    0.3475440790    0.5685175629          0.2658
C139       C    0.5810444639    0.3722324276    0.5000297412          0.2658
C140       C    0.5808019158    0.3475284222    0.4315486595          0.2658
H141       H    0.5803076493    0.2798486876    0.3808616120          0.2658
H142       H    0.5806041639    0.2798782789    0.6192209126          0.2658
H143       H    0.5811518426    0.3658314596    0.6192113506          0.2658
H144       H    0.5808553280    0.3658018683    0.3808520500          0.2658
C125       C    0.5040706424    0.0592100781    0.3044973019          0.2658
C126       C    0.5183948743    0.0725346616    0.2318904463          0.2658
C127       C    0.5484323562    0.1112789801    0.2222561711          0.2658
C128       C    0.5641456062    0.1366987153    0.2852287514          0.2658
C129       C    0.5498213742    0.1233741319    0.3578356070          0.2658
C130       C    0.5197838923    0.0846298133    0.3674698822          0.2658
H131       H    0.4818351038    0.0305292189    0.3116291680          0.2658
H132       H    0.5590360524    0.1211430156    0.1685125297          0.2658
H133       H    0.5863811447    0.1653795745    0.2780968853          0.2658
H134       H    0.5091801962    0.0747657779    0.4212135236          0.2658
C115       C    0.5570603185    0.1029958088    0.7747493798          0.2658
C116       C    0.5183952350    0.0725354741    0.7681418850          0.2658
C117       C    0.4954432799    0.0674952887    0.6985792434          0.2658
C118       C    0.5111564083    0.0929154381    0.6356240965          0.2658
C119       C    0.5498214918    0.1233757728    0.6422315914          0.2658
C120       C    0.5727734469    0.1284159582    0.7117942330          0.2658
H121       H    0.5740507268    0.1067268551    0.8262438029          0.2658
H122       H    0.4668227961    0.0449484977    0.6936861978          0.2658
H123       H    0.4941659999    0.0891843918    0.5841296735          0.2658
H124       H    0.6013939307    0.1509627492    0.7166872786          0.2658
C105       C    0.5588148390    0.9421045015    0.2708377531          0.2658
C106       C    0.5183995752    0.9274648474    0.2318689779          0.2658
C107       C    0.4936987665    0.8874061217    0.2558626389          0.2658
C108       C    0.5094132217    0.8619870500    0.3188250752          0.2658
C109       C    0.5498284856    0.8766267041    0.3577938504          0.2658
C110       C    0.5745292942    0.9166854298    0.3338001894          0.2658
H111       H    0.5770998532    0.9717583634    0.2530762119          0.2658
H112       H    0.4637827501    0.8765686340    0.2270188493          0.2658
H113       H    0.4911282075    0.8323331881    0.3365866164          0.2658
H114       H    0.6044453106    0.9275229175    0.3626439791          0.2658
C95        C    0.4954465493    0.9325033268    0.6985578761          0.2658
C96        C    0.5183988155    0.9274662754    0.7681198956          0.2658
C97        C    0.5570660697    0.8970098761    0.7747171451          0.2658
C98        C    0.5727810577    0.8715905281    0.7117523751          0.2658
C99        C    0.5498287914    0.8766275795    0.6421903555          0.2658
C100       C    0.5111615372    0.9070839788    0.6355931060          0.2658
H101       H    0.4668227377    0.9550489731    0.6936741979          0.2658
H102       H    0.5740564794    0.8932805047    0.8262069135          0.2658
H103       H    0.6014048692    0.8490448818    0.7166360533          0.2658
H104       H    0.4941711276    0.9108133502    0.5841033376          0.2658
loop_
_geom_bond_atom_site_label_1
_geom_bond_atom_site_label_2
_geom_bond_distance
_geom_bond_site_symmetry_2
_ccdc_geom_bond_type
C1           C2 1.540       .   A
C1           C6 1.540       .   A
C1         C116 1.803       .   S
C2           C3 1.540       .   A
C2          H21 1.140       .   S
C3           C4 1.540       .   A
C3          C96 1.803       .   S
C4           C5 1.540       .   A
C4          C11 1.540       .   A
C5           C6 1.540       .   A
C5          C10 1.540       .   A
C6           C7 1.540       .   A
C7           C8 1.540       .   A
C7          H17 1.140       .   S
C8           C9 1.540       .   A
C8          H18 1.140       .   S
C9          C10 1.540       .   A
C9          C16 1.540       .   A
C10         C13 1.540       .   A
C11         C12 1.540       .   A
C11         H19 1.140       .   S
C12         C13 1.540       .   A
C12         H20 1.140       .   S
C13         C14 1.540       .   A
C14         C15 1.540       .   A
C14        C106 1.803       .   S
C15         C16 1.540       .   A
C15         H22 1.140       .   S
C16        C126 1.803       .   S
C23         C24 1.540       .   A
C23         C28 1.540       .   A
C23        C119 1.803   1_556   S
C24         C25 1.540       .   A
C24         H29 1.140       .   S
C25         C26 1.540       .   A
C25        C136 1.471       .   S
C26         C27 1.540       .   A
C26         H30 1.140       .   S
C27         C28 1.540       .   A
C27        C129 1.803       .   S
C28         H31 1.140       .   S
C32         C33 1.540       .   A
C32         C37 1.540       .   A
C32        C109 1.803   1_565   S
C33         C34 1.540       .   A
C33         H38 1.140       .   S
C34         C35 1.540       .   A
C34         C99 1.803   1_566   S
C35         C36 1.540       .   A
C35         H39 1.140       .   S
C36         C37 1.540       .   A
C36        C146 1.471       .   S
C37         H40 1.140       .   S
C41         C42 1.540       .   A
C41         C46 1.540       .   A
C41        C176 1.803       .   S
C42         C43 1.540       .   A
C42         H61 1.140       .   S
C43         C44 1.540       .   A
C43        C159 1.803       .   S
C44         C45 1.540       .   A
C44         C51 1.540       .   A
C45         C46 1.540       .   A
C45         C50 1.540       .   A
C46         C47 1.540       .   A
C47         C48 1.540       .   A
C47         H57 1.140       .   S
C48         C49 1.540       .   A
C48         H58 1.140       .   S
C49         C50 1.540       .   A
C49         C56 1.540       .   A
C50         C53 1.540       .   A
C51         C52 1.540       .   A
C51         H59 1.140       .   S
C52         C53 1.540       .   A
C52         H60 1.140       .   S
C53         C54 1.540       .   A
C54         C55 1.540       .   A
C54        C166 1.803       .   S
C55         C56 1.540       .   A
C55         H62 1.140       .   S
C56        C186 1.803       .   S
C63         C64 1.540       .   A
C63         C68 1.540       .   A
C63        C179 1.803   1_556   S
C64         C65 1.540       .   A
C64         H69 1.140       .   S
C65         C66 1.540       .   A
C65        C189 1.803       .   S
C66         C67 1.540       .   A
C66         H70 1.140       .   S
C67         C68 1.540       .   A
C67        C199 1.471       .   S
C68         H71 1.140       .   S
C72         C73 1.540       .   A
C72         C77 1.540       .   A
C72        C169 1.803   1_655   S
C73         C74 1.540       .   A
C73         H78 1.140       .   S
C74         C75 1.540       .   A
C74        C156 1.803   1_656   S
C75         C76 1.540       .   A
C75         H79 1.140       .   S
C76         C77 1.540       .   A
C76        C206 1.471       .   S
C77         H80 1.140       .   S
O81        Cu89 1.951       .   S
O81         C91 1.250       .   A
O82        Cu89 1.951       .   S
O82         C92 1.250       .   A
O83        Cu89 1.951       .   S
O83         C93 1.250       .   A
O84        Cu89 1.951       .   S
O84         C94 1.250       .   A
O85        Cu90 1.951       .   S
O85         C94 1.250       .   A
O86        Cu90 1.951       .   S
O86         C93 1.251       .   A
O87        Cu90 1.951       .   S
O87         C92 1.250       .   A
O88        Cu90 1.951       .   S
O88         C91 1.250       .   A
Cu89       Cu90 2.630       .   S
C91        C139 1.471       .   S
C92        C149 1.471       .   S
C93        C209 1.471       .   S
C94        C196 1.471       .   S
C205       C206 1.540       .   A
C205       C210 1.540       .   A
C205       H211 1.140       .   S
C206       C207 1.540       .   A
C207       C208 1.540       .   A
C207       H212 1.140       .   S
C208       C209 1.540       .   A
C208       H213 1.140       .   S
C209       C210 1.540       .   A
C210       H214 1.140       .   S
C195       C196 1.540       .   A
C195       C200 1.540       .   A
C195       H201 1.140       .   S
C196       C197 1.540       .   A
C197       C198 1.540       .   A
C197       H202 1.140       .   S
C198       C199 1.540       .   A
C198       H203 1.140       .   S
C199       C200 1.540       .   A
C200       H204 1.140       .   S
C185       C186 1.540       .   A
C185       C190 1.540       .   A
C185       H191 1.140       .   S
C186       C187 1.540       .   A
C187       C188 1.540       .   A
C187       H192 1.140       .   S
C188       C189 1.540       .   A
C188       H193 1.140       .   S
C189       C190 1.540       .   A
C190       H194 1.140       .   S
C175       C176 1.540       .   A
C175       C180 1.540       .   A
C175       H181 1.140       .   S
C176       C177 1.540       .   A
C177       C178 1.540       .   A
C177       H182 1.140       .   S
C178       C179 1.540       .   A
C178       H183 1.140       .   S
C179       C180 1.540       .   A
C180       H184 1.140       .   S
C165       C166 1.540       .   A
C165       C170 1.540       .   A
C165       H171 1.140       .   S
C166       C167 1.540       .   A
C167       C168 1.540       .   A
C167       H172 1.140       .   S
C168       C169 1.540       .   A
C168       H173 1.140       .   S
C169       C170 1.540       .   A
C170       H174 1.140       .   S
C155       C156 1.540       .   A
C155       C160 1.540       .   A
C155       H161 1.140       .   S
C156       C157 1.540       .   A
C157       C158 1.540       .   A
C157       H162 1.140       .   S
C158       C159 1.540       .   A
C158       H163 1.140       .   S
C159       C160 1.540       .   A
C160       H164 1.140       .   S
C145       C146 1.540       .   A
C145       C150 1.540       .   A
C145       H151 1.140       .   S
C146       C147 1.540       .   A
C147       C148 1.540       .   A
C147       H152 1.140       .   S
C148       C149 1.540       .   A
C148       H153 1.140       .   S
C149       C150 1.540       .   A
C150       H154 1.140       .   S
C135       C136 1.540       .   A
C135       C140 1.540       .   A
C135       H141 1.140       .   S
C136       C137 1.540       .   A
C137       C138 1.540       .   A
C137       H142 1.140       .   S
C138       C139 1.540       .   A
C138       H143 1.140       .   S
C139       C140 1.540       .   A
C140       H144 1.140       .   S
C125       C126 1.540       .   A
C125       C130 1.540       .   A
C125       H131 1.140       .   S
C126       C127 1.540       .   A
C127       C128 1.540       .   A
C127       H132 1.140       .   S
C128       C129 1.540       .   A
C128       H133 1.140       .   S
C129       C130 1.540       .   A
C130       H134 1.140       .   S
C115       C116 1.540       .   A
C115       C120 1.540       .   A
C115       H121 1.140       .   S
C116       C117 1.540       .   A
C117       C118 1.540       .   A
C117       H122 1.140       .   S
C118       C119 1.540       .   A
C118       H123 1.140       .   S
C119       C120 1.540       .   A
C120       H124 1.140       .   S
C105       C106 1.540       .   A
C105       C110 1.540       .   A
C105       H111 1.140       .   S
C106       C107 1.540       .   A
C107       C108 1.540       .   A
C107       H112 1.140       .   S
C108       C109 1.540       .   A
C108       H113 1.140       .   S
C109       C110 1.540       .   A
C110       H114 1.140       .   S
C95         C96 1.540       .   A
C95        C100 1.540       .   A
C95        H101 1.140       .   S
C96         C97 1.540       .   A
C97         C98 1.540       .   A
C97        H102 1.140       .   S
C98         C99 1.540       .   A
C98        H103 1.140       .   S
C99        C100 1.540       .   A
C100       H104 1.140       .   S
