data_ffc_v1-4c_pyrene_Ch_v2-4c_Cu_1_Ch_v3-3c_triazine_Ch_2-1B_4H_Ch
_audit_creation_date              2024-08-05
_audit_creation_method            'tobacco_3.0'
_symmetry_space_group_name_H-M    'P1'
_symmetry_Int_Tables_number       1
_symmetry_cell_setting            triclinic
loop_
_symmetry_equiv_pos_as_xyz
  x,y,z
_cell_length_a                    31.17790683919932
_cell_length_b                    31.178647841984322
_cell_length_c                    19.474231653584525
_cell_angle_alpha                 90.00705466606254
_cell_angle_beta                  90.0080404997413
_cell_angle_gamma                 90.00006610584822
loop_
_atom_site_label
_atom_site_type_symbol
_atom_site_fract_x
_atom_site_fract_y
_atom_site_fract_z
_atom_site_charge
C1         C    0.4999988972    0.0427745225    0.8418473953         -0.8238
C2         C    0.5000000000    0.0000004980    0.8023027574         -0.7624
C3         C    0.5000011028    0.9572249914    0.8418334586         -0.8236
C4         C    0.5000011028    0.9572235093    0.9209087978         -0.6142
C5         C    0.5000000000    0.0000007411    0.9604623304         -0.7416
C6         C    0.4999988972    0.0427762477    0.9209316292         -0.6162
C7         C    0.4999977944    0.0855502721    0.9604762671         -0.8417
C8         C    0.4999977944    0.0855519973    0.0395605010         -0.8417
C9         C    0.4999988972    0.0427764907    0.0790912022         -0.6162
C10        C    0.5000000000    0.9999992589    0.0395376696         -0.7416
C11        C    0.5000022056    0.9144480027    0.9604394990         -0.8429
C12        C    0.5000022056    0.9144497279    0.0395237329         -0.8429
C13        C    0.5000011028    0.9572237523    0.0790683708         -0.6142
C14        C    0.5000011028    0.9572254775    0.1581526047         -0.8236
C15        C    0.5000000000    0.9999995020    0.1976972426         -0.7624
C16        C    0.4999988972    0.0427750086    0.1581665414         -0.8238
H17        H    0.4999969780    0.1172152575    0.9312132805         -0.6416
H18        H    0.4999969780    0.1172157189    0.0688333423         -0.6416
H19        H    0.5000030220    0.8827842811    0.9311666577         -0.6398
H20        H    0.5000030220    0.8827847425    0.0687867195         -0.6398
H21        H    0.5000000000    0.0000017618    0.7437669295         -0.6753
H22        H    0.5000000000    0.9999982382    0.2562330705         -0.6753
C23        C    0.5682178296    0.1531367244    0.5685260811          0.2818
N24        N    0.5761490066    0.2018863877    0.5685306573          0.2818
C25        C    0.5801143560    0.2262597496    0.5000496608          0.2818
N26        N    0.5761485283    0.2018834481    0.4315640882          0.2818
C27        C    0.5682173513    0.1531337848    0.4315595120          0.2818
N28        N    0.5642520020    0.1287604230    0.5000405084          0.2818
C29        C    0.5682269580    0.8468660740    0.4315102236          0.2818
N30        N    0.5642611304    0.8712422891    0.4999940845          0.2818
C31        C    0.5682265041    0.8468688635    0.5684767925          0.2818
N32        N    0.5761577055    0.7981192228    0.5684756396          0.2818
C33        C    0.5801235332    0.7737430076    0.4999917787          0.2818
N34        N    0.5761581594    0.7981164332    0.4315090707          0.2818
C35        C    0.1241205589    0.5813451244    0.8418854967         -0.8238
C36        C    0.0813454958    0.5813441045    0.8023397409         -0.7624
C37        C    0.0385689944    0.5813430845    0.8418693241         -0.8236
C38        C    0.0385675561    0.5813430845    0.9209446632         -0.6142
C39        C    0.0813458266    0.5813441045    0.9604993139         -0.7416
C40        C    0.1241223280    0.5813451244    0.9209697307         -0.6162
C41        C    0.1668973911    0.5813461443    0.9605154865         -0.8417
C42        C    0.1668991602    0.5813461444    0.0395997205         -0.8417
C43        C    0.1241226588    0.5813451244    0.0791293037         -0.6162
C44        C    0.0813443883    0.5813441044    0.0395746530         -0.7416
C45        C    0.9957910547    0.5813420645    0.9604742465         -0.8429
C46        C    0.9957928238    0.5813420646    0.0395584804         -0.8429
C47        C    0.0385678869    0.5813430845    0.0791042363         -0.6142
C48        C    0.0385696560    0.5813430845    0.1581884702         -0.8236
C49        C    0.0813447191    0.5813441044    0.1977342261         -0.7655
C50        C    0.1241212205    0.5813451244    0.1582046428         -0.8238
H51        H    0.1985631130    0.5813468993    0.9312533275         -0.6416
H52        H    0.1985636507    0.5813468994    0.0688733894         -0.6416
H53        H    0.9641265642    0.5813413095    0.9312005776         -0.6398
H54        H    0.9641271020    0.5813413096    0.0688206394         -0.6398
H55        H    0.0813467272    0.5813441045    0.7438039129         -0.6753
H56        H    0.0813434877    0.5813441044    0.2562700540         -0.6753
C57        C    0.2344815864    0.5131293196    0.5685349358          0.2818
N58        N    0.2101043080    0.5170951643    0.5000507521          0.2818
C59        C    0.2344778188    0.5131299326    0.4315683667          0.2818
N60        N    0.2832286079    0.5051988561    0.4315701651          0.2818
C61        C    0.3076058862    0.5012330114    0.5000543488          0.2818
N62        N    0.2832323755    0.5051982432    0.5685367342          0.2818
C63        C    0.9282112914    0.5131209058    0.4315125448          0.2818
N64        N    0.9525883668    0.5170867334    0.4999984884          0.2818
C65        C    0.9282146399    0.5131214506    0.5684791141          0.2818
N66        N    0.8794638378    0.5051903402    0.5684737963          0.2818
C67        C    0.8550867624    0.5012245126    0.4999878528          0.2818
N68        N    0.8794604893    0.5051897954    0.4315072270          0.2818
O69        O    0.5813382982    0.4377654384    0.4429255005         -1.4447
O70        O    0.5813409965    0.5622242595    0.4429177610         -1.4545
O71        O    0.6435718528    0.4999992423    0.4429194637         -1.3407
O72        O    0.5191029072    0.4999949926    0.4429237857         -1.4248
O73        O    0.5191158344    0.5000070631    0.5571140965         -1.4203
O74        O    0.6435802435    0.5000067789    0.5571095886         -1.3329
O75        O    0.5813539237    0.5622363300    0.5571080718         -1.4579
O76        O    0.5813512253    0.4377775088    0.5571158113         -1.4457
Cu77      Cu    0.5813390134    0.4999971376    0.4325010842          1.0456
Cu78      Cu    0.5813532085    0.5000046308    0.5675324881          1.0433
C79        C    0.5813451359    0.4194203977    0.5000233018          0.2173
C80        C    0.5813470860    0.5805813707    0.5000102704          0.2087
C81        C    0.6619257053    0.4999996582    0.5000093676          0.1301
C82        C    0.5007665166    0.5000021102    0.5000242046          0.1928
C193       C    0.7834737414    0.4580006794    0.5011995087          0.2818
C194       C    0.8078997714    0.5009252950    0.4999931086          0.2818
C195       C    0.7829322638    0.5435367010    0.4987922102          0.2818
C196       C    0.7335387263    0.5432234914    0.4987977118          0.2818
C197       C    0.7091126963    0.5002988758    0.5000041118          0.2818
C198       C    0.7340802039    0.4576874698    0.5012050103          0.2818
H199       H    0.8019561821    0.4264571710    0.5020884854          0.2818
H200       H    0.8010115342    0.5753106974    0.4978991991          0.2818
H201       H    0.7150562856    0.5747669997    0.4979087350          0.2818
H202       H    0.7160009335    0.4259134733    0.5020980213          0.2818
C183       C    0.4288926895    0.5004861602    0.5685199835          0.2818
C184       C    0.4535797281    0.5003028044    0.5000315685          0.2818
C185       C    0.4288732400    0.5004342050    0.4315508617          0.2818
C186       C    0.3794797133    0.5007489614    0.4315585700          0.2818
C187       C    0.3547926747    0.5009323173    0.5000469850          0.2818
C188       C    0.3794991628    0.5008009166    0.5685276917          0.2818
H189       H    0.4471819079    0.5003888896    0.6192134937          0.2818
H190       H    0.4471457163    0.5002984898    0.3808538131          0.2818
H191       H    0.3611904949    0.5008462320    0.3808650598          0.2818
H192       H    0.3612266865    0.5009366318    0.6192247403          0.2818
C173       C    0.1352213479    0.5686925922    0.3045576229          0.2818
C174       C    0.1538797341    0.5629503682    0.2319192936          0.2818
C175       C    0.1979579058    0.5414953045    0.2222481754          0.2818
C176       C    0.2233776913    0.5257824647    0.2852153866          0.2818
C177       C    0.2047193051    0.5315246887    0.3578537160          0.2818
C178       C    0.1606411334    0.5529797525    0.3675248341          0.2818
H179       H    0.1025920520    0.5845749121    0.3117167624          0.2818
H180       H    0.2117701719    0.5372442517    0.1684812361          0.2818
H181       H    0.2560069873    0.5099001448    0.2780562472          0.2818
H182       H    0.1468288673    0.5572308052    0.4212917734          0.2818
C163       C    0.1770993183    0.5193757147    0.7704059910          0.2818
C164       C    0.1538811222    0.5629496743    0.7681722772          0.2818
C165       C    0.1560828766    0.5908111816    0.7029765025          0.2818
C166       C    0.1815028271    0.5750987293    0.6400144416          0.2818
C167       C    0.2047210232    0.5315247697    0.6422481554          0.2818
C168       C    0.2025192688    0.5036632624    0.7074439301          0.2818
H169       H    0.1754694481    0.4987509625    0.8186677982          0.2818
H170       H    0.1388969200    0.6230653534    0.7013210522          0.2818
H171       H    0.1831326972    0.5957234815    0.5917526344          0.2818
H172       H    0.2197052253    0.4714090906    0.7090993803          0.2818
C153       C    0.0324013139    0.5413316545    0.2921416900          0.2818
C154       C    0.0088097186    0.5629458586    0.2318947759          0.2818
C155       C    0.9597988783    0.5688461993    0.2346035934          0.2818
C156       C    0.9343796335    0.5531323359    0.2975593250          0.2818
C157       C    0.9579712288    0.5315181318    0.3578062392          0.2818
C158       C    0.0069820691    0.5256177911    0.3550974217          0.2818
H159       H    0.0686820658    0.5369638698    0.2901364615          0.2818
H160       H    0.9423349122    0.5848451431    0.1900091274          0.2818
H161       H    0.8980988816    0.5575001206    0.2995645536          0.2818
H162       H    0.0244460351    0.5096188473    0.3996918877          0.2818
C143       C    0.0059412620    0.5205822330    0.6492306162          0.2818
C144       C    0.9579726207    0.5315179885    0.6422010859          0.2818
C145       C    0.9354231759    0.5581680231    0.6981446888          0.2818
C146       C    0.9608423723    0.5738823021    0.7611178220          0.2818
C147       C    0.0088110137    0.5629465466    0.7681473523          0.2818
C148       C    0.0313604585    0.5362965120    0.7122037494          0.2818
H149       H    0.0226337082    0.5008542854    0.6078178192          0.2818
H150       H    0.8999162444    0.5662634739    0.6929432260          0.2818
H151       H    0.9441499261    0.5936102497    0.8025306190          0.2818
H152       H    0.0668673900    0.5282010612    0.7174052122          0.2818
C133       C    0.5378031688    0.7015868052    0.5000479339          0.2818
C134       C    0.5804224412    0.7265545544    0.4999962962          0.2818
C135       C    0.6233545819    0.7021299384    0.4999493869          0.2818
C136       C    0.6236674503    0.6527375731    0.4999541153          0.2818
C137       C    0.5810481779    0.6277698239    0.5000057530          0.2818
C138       C    0.5381160372    0.6521944399    0.5000526623          0.2818
H139       H    0.5060222335    0.7196673651    0.5000826590          0.2818
H140       H    0.6549025745    0.7206102046    0.4999111633          0.2818
H141       H    0.6554483856    0.6346570132    0.4999193902          0.2818
H142       H    0.5065680446    0.6337141737    0.5000908859          0.2818
C123       C    0.5804871979    0.2981360682    0.4315553997          0.2818
C124       C    0.5804150280    0.2734477196    0.5000432215          0.2818
C125       C    0.5806575761    0.2981517250    0.5685243031          0.2818
C126       C    0.5809722940    0.3475440790    0.5685175629          0.2818
C127       C    0.5810444639    0.3722324276    0.5000297412          0.2818
C128       C    0.5808019158    0.3475284222    0.4315486595          0.2818
H129       H    0.5803076493    0.2798486876    0.3808616120          0.2818
H130       H    0.5806041639    0.2798782789    0.6192209126          0.2818
H131       H    0.5811518426    0.3658314596    0.6192113506          0.2818
H132       H    0.5808553280    0.3658018683    0.3808520500          0.2818
C113       C    0.5040706424    0.0592100781    0.3044973019          0.2818
C114       C    0.5183948743    0.0725346616    0.2318904463          0.2818
C115       C    0.5484323562    0.1112789801    0.2222561711          0.2818
C116       C    0.5641456062    0.1366987153    0.2852287514          0.2818
C117       C    0.5498213742    0.1233741319    0.3578356070          0.2818
C118       C    0.5197838923    0.0846298133    0.3674698822          0.2818
H119       H    0.4818351038    0.0305292189    0.3116291680          0.2818
H120       H    0.5590360524    0.1211430156    0.1685125297          0.2818
H121       H    0.5863811447    0.1653795745    0.2780968853          0.2818
H122       H    0.5091801962    0.0747657779    0.4212135236          0.2818
C103       C    0.5570603185    0.1029958088    0.7747493798          0.2818
C104       C    0.5183952350    0.0725354741    0.7681418850          0.2818
C105       C    0.4954432799    0.0674952887    0.6985792434          0.2818
C106       C    0.5111564083    0.0929154381    0.6356240965          0.2818
C107       C    0.5498214918    0.1233757728    0.6422315914          0.2818
C108       C    0.5727734469    0.1284159582    0.7117942330          0.2818
H109       H    0.5740507268    0.1067268551    0.8262438029          0.2818
H110       H    0.4668227961    0.0449484977    0.6936861978          0.2818
H111       H    0.4941659999    0.0891843918    0.5841296735          0.2818
H112       H    0.6013939307    0.1509627492    0.7166872786          0.2818
C93        C    0.5588148390    0.9421045015    0.2708377531          0.2818
C94        C    0.5183995752    0.9274648474    0.2318689779          0.2818
C95        C    0.4936987665    0.8874061217    0.2558626389          0.2818
C96        C    0.5094132217    0.8619870500    0.3188250752          0.2818
C97        C    0.5498284856    0.8766267041    0.3577938504          0.2818
C98        C    0.5745292942    0.9166854298    0.3338001894          0.2818
H99        H    0.5770998532    0.9717583634    0.2530762119          0.2818
H100       H    0.4637827501    0.8765686340    0.2270188493          0.2818
H101       H    0.4911282075    0.8323331881    0.3365866164          0.2818
H102       H    0.6044453106    0.9275229175    0.3626439791          0.2818
C83        C    0.4954465493    0.9325033268    0.6985578761          0.2818
C84        C    0.5183988155    0.9274662754    0.7681198956          0.2818
C85        C    0.5570660697    0.8970098761    0.7747171451          0.2818
C86        C    0.5727810577    0.8715905281    0.7117523751          0.2818
C87        C    0.5498287914    0.8766275795    0.6421903555          0.2818
C88        C    0.5111615372    0.9070839788    0.6355931060          0.2818
H89        H    0.4668227377    0.9550489731    0.6936741979          0.2818
H90        H    0.5740564794    0.8932805047    0.8262069135          0.2818
H91        H    0.6014048692    0.8490448818    0.7166360533          0.2818
H92        H    0.4941711276    0.9108133502    0.5841033376          0.2818
loop_
_geom_bond_atom_site_label_1
_geom_bond_atom_site_label_2
_geom_bond_distance
_geom_bond_site_symmetry_2
_ccdc_geom_bond_type
C1           C2 1.540       .   A
C1           C6 1.540       .   A
C1         C104 1.803       .   S
C2           C3 1.540       .   A
C2          H21 1.140       .   S
C3           C4 1.540       .   A
C3          C84 1.803       .   S
C4           C5 1.540       .   A
C4          C11 1.540       .   A
C5           C6 1.540       .   A
C5          C10 1.540       .   A
C6           C7 1.540       .   A
C7           C8 1.540       .   A
C7          H17 1.140       .   S
C8           C9 1.540       .   A
C8          H18 1.140       .   S
C9          C10 1.540       .   A
C9          C16 1.540       .   A
C10         C13 1.540       .   A
C11         C12 1.540       .   A
C11         H19 1.140       .   S
C12         C13 1.540       .   A
C12         H20 1.140       .   S
C13         C14 1.540       .   A
C14         C15 1.540       .   A
C14         C94 1.803       .   S
C15         C16 1.540       .   A
C15         H22 1.140       .   S
C16        C114 1.803       .   S
C23         N24 1.540       .   A
C23         N28 1.540       .   A
C23        C107 1.803   1_556   S
N24         C25 1.540       .   A
C25         N26 1.540       .   A
C25        C124 1.471       .   S
N26         C27 1.540       .   A
C27         N28 1.540       .   A
C27        C117 1.803       .   S
C29         N30 1.540       .   A
C29         N34 1.540       .   A
C29         C97 1.803   1_565   S
N30         C31 1.540       .   A
C31         N32 1.540       .   A
C31         C87 1.803   1_566   S
N32         C33 1.540       .   A
C33         N34 1.540       .   A
C33        C134 1.471       .   S
C35         C36 1.540       .   A
C35         C40 1.540       .   A
C35        C164 1.803       .   S
C36         C37 1.540       .   A
C36         H55 1.140       .   S
C37         C38 1.540       .   A
C37        C147 1.803       .   S
C38         C39 1.540       .   A
C38         C45 1.540       .   A
C39         C40 1.540       .   A
C39         C44 1.540       .   A
C40         C41 1.540       .   A
C41         C42 1.540       .   A
C41         H51 1.140       .   S
C42         C43 1.540       .   A
C42         H52 1.140       .   S
C43         C44 1.540       .   A
C43         C50 1.540       .   A
C44         C47 1.540       .   A
C45         C46 1.540       .   A
C45         H53 1.140       .   S
C46         C47 1.540       .   A
C46         H54 1.140       .   S
C47         C48 1.540       .   A
C48         C49 1.540       .   A
C48        C154 1.803       .   S
C49         C50 1.540       .   A
C49         H56 1.140       .   S
C50        C174 1.803       .   S
C57         N58 1.540       .   A
C57         N62 1.540       .   A
C57        C167 1.803   1_556   S
N58         C59 1.540       .   A
C59         N60 1.540       .   A
C59        C177 1.803       .   S
N60         C61 1.540       .   A
C61         N62 1.540       .   A
C61        C187 1.471       .   S
C63         N64 1.540       .   A
C63         N68 1.540       .   A
C63        C157 1.803   1_655   S
N64         C65 1.540       .   A
C65         N66 1.540       .   A
C65        C144 1.803   1_656   S
N66         C67 1.540       .   A
C67         N68 1.540       .   A
C67        C194 1.471       .   S
O69        Cu77 1.951       .   S
O69         C79 1.250       .   A
O70        Cu77 1.951       .   S
O70         C80 1.250       .   A
O71        Cu77 1.951       .   S
O71         C81 1.250       .   A
O72        Cu77 1.951       .   S
O72         C82 1.250       .   A
O73        Cu78 1.951       .   S
O73         C82 1.250       .   A
O74        Cu78 1.951       .   S
O74         C81 1.251       .   A
O75        Cu78 1.951       .   S
O75         C80 1.250       .   A
O76        Cu78 1.951       .   S
O76         C79 1.250       .   A
Cu77       Cu78 2.630       .   S
C79        C127 1.471       .   S
C80        C137 1.471       .   S
C81        C197 1.471       .   S
C82        C184 1.471       .   S
C193       C194 1.540       .   A
C193       C198 1.540       .   A
C193       H199 1.140       .   S
C194       C195 1.540       .   A
C195       C196 1.540       .   A
C195       H200 1.140       .   S
C196       C197 1.540       .   A
C196       H201 1.140       .   S
C197       C198 1.540       .   A
C198       H202 1.140       .   S
C183       C184 1.540       .   A
C183       C188 1.540       .   A
C183       H189 1.140       .   S
C184       C185 1.540       .   A
C185       C186 1.540       .   A
C185       H190 1.140       .   S
C186       C187 1.540       .   A
C186       H191 1.140       .   S
C187       C188 1.540       .   A
C188       H192 1.140       .   S
C173       C174 1.540       .   A
C173       C178 1.540       .   A
C173       H179 1.140       .   S
C174       C175 1.540       .   A
C175       C176 1.540       .   A
C175       H180 1.140       .   S
C176       C177 1.540       .   A
C176       H181 1.140       .   S
C177       C178 1.540       .   A
C178       H182 1.140       .   S
C163       C164 1.540       .   A
C163       C168 1.540       .   A
C163       H169 1.140       .   S
C164       C165 1.540       .   A
C165       C166 1.540       .   A
C165       H170 1.140       .   S
C166       C167 1.540       .   A
C166       H171 1.140       .   S
C167       C168 1.540       .   A
C168       H172 1.140       .   S
C153       C154 1.540       .   A
C153       C158 1.540       .   A
C153       H159 1.140       .   S
C154       C155 1.540       .   A
C155       C156 1.540       .   A
C155       H160 1.140       .   S
C156       C157 1.540       .   A
C156       H161 1.140       .   S
C157       C158 1.540       .   A
C158       H162 1.140       .   S
C143       C144 1.540       .   A
C143       C148 1.540       .   A
C143       H149 1.140       .   S
C144       C145 1.540       .   A
C145       C146 1.540       .   A
C145       H150 1.140       .   S
C146       C147 1.540       .   A
C146       H151 1.140       .   S
C147       C148 1.540       .   A
C148       H152 1.140       .   S
C133       C134 1.540       .   A
C133       C138 1.540       .   A
C133       H139 1.140       .   S
C134       C135 1.540       .   A
C135       C136 1.540       .   A
C135       H140 1.140       .   S
C136       C137 1.540       .   A
C136       H141 1.140       .   S
C137       C138 1.540       .   A
C138       H142 1.140       .   S
C123       C124 1.540       .   A
C123       C128 1.540       .   A
C123       H129 1.140       .   S
C124       C125 1.540       .   A
C125       C126 1.540       .   A
C125       H130 1.140       .   S
C126       C127 1.540       .   A
C126       H131 1.140       .   S
C127       C128 1.540       .   A
C128       H132 1.140       .   S
C113       C114 1.540       .   A
C113       C118 1.540       .   A
C113       H119 1.140       .   S
C114       C115 1.540       .   A
C115       C116 1.540       .   A
C115       H120 1.140       .   S
C116       C117 1.540       .   A
C116       H121 1.140       .   S
C117       C118 1.540       .   A
C118       H122 1.140       .   S
C103       C104 1.540       .   A
C103       C108 1.540       .   A
C103       H109 1.140       .   S
C104       C105 1.540       .   A
C105       C106 1.540       .   A
C105       H110 1.140       .   S
C106       C107 1.540       .   A
C106       H111 1.140       .   S
C107       C108 1.540       .   A
C108       H112 1.140       .   S
C93         C94 1.540       .   A
C93         C98 1.540       .   A
C93         H99 1.140       .   S
C94         C95 1.540       .   A
C95         C96 1.540       .   A
C95        H100 1.140       .   S
C96         C97 1.540       .   A
C96        H101 1.140       .   S
C97         C98 1.540       .   A
C98        H102 1.140       .   S
C83         C84 1.540       .   A
C83         C88 1.540       .   A
C83         H89 1.140       .   S
C84         C85 1.540       .   A
C85         C86 1.540       .   A
C85         H90 1.140       .   S
C86         C87 1.540       .   A
C86         H91 1.140       .   S
C87         C88 1.540       .   A
C88         H92 1.140       .   S
