data_nbo_v1-4c_Cu_1_Ch_1-1B_4H_Ch
_audit_creation_date              2024-08-05
_audit_creation_method            'tobacco_3.0'
_symmetry_space_group_name_H-M    'P1'
_symmetry_Int_Tables_number       1
_symmetry_cell_setting            triclinic
loop_
_symmetry_equiv_pos_as_xyz
  x,y,z
_cell_length_a                    22.369547151093755
_cell_length_b                    22.369284017671863
_cell_length_c                    22.369547151187025
_cell_angle_alpha                 89.99975662998071
_cell_angle_beta                  89.99975662437605
_cell_angle_gamma                 89.99975663005652
loop_
_atom_site_label
_atom_site_type_symbol
_atom_site_fract_x
_atom_site_fract_y
_atom_site_fract_z
_atom_site_charge
O1         O    0.0867352705    0.0000002055    0.4502937234         -1.3557
O2         O    0.9132647147    0.0000018666    0.4502957469         -1.3655
O3         O    0.9999925501    0.0867391679    0.4502978368         -1.2517
O4         O    0.0000011115    0.9132565838    0.4502916230         -1.3358
O5         O    0.0000011262    0.9132545117    0.5497021527         -1.3313
O6         O    0.9999988843    0.0867307731    0.5497082039         -1.2439
O7         O    0.9132647295    0.9999997945    0.5497062766         -1.3689
O8         O    0.0867352853    0.9999981334    0.5497042531         -1.3567
Cu9       Cu    0.9999952661    0.0000019857    0.4412229321          1.0456
Cu10      Cu    0.0000047339    0.9999980143    0.5587770679          1.0433
C11        C    0.1123129858    0.0000000003    0.5000000000          0.3063
C12        C    0.8876870142    0.9999999997    0.5000000000          0.2977
C13        C    0.0000000003    0.1123103944    0.5000000000          0.2191
C14        C    0.9999999997    0.8876896056    0.5000000000          0.2819
O15        O    0.0497062832    0.4999997973    0.4132647172         -1.3557
O16        O    0.0497042597    0.4999981362    0.5867352730         -1.3655
O17        O    0.0497021698    0.4132608349    0.5000074376         -1.2517
O18        O    0.0497083836    0.5867434191    0.4999988762         -1.3358
O19        O    0.9502978539    0.5867454912    0.4999988615         -1.3313
O20        O    0.9502918027    0.4132692297    0.5000011034         -1.2439
O21        O    0.9502937301    0.5000002084    0.5867352582         -1.3689
O22        O    0.9502957535    0.5000018695    0.4132647024         -1.3567
Cu23      Cu    0.0587770746    0.4999980172    0.5000047216          1.0456
Cu24      Cu    0.9412229387    0.5000019885    0.4999952538          1.0433
C25        C    0.0000000066    0.5000000026    0.3876870019          0.3063
C26        C    0.0000000066    0.5000000031    0.6123129735          0.2977
C27        C    0.0000000066    0.3876896084    0.4999999874          0.2191
C28        C    0.0000000066    0.6123103973    0.4999999880          0.2819
O29        O    0.5867348526    0.0497068675    0.4999997709         -1.3557
O30        O    0.4132642969    0.0497048441    0.5000014321         -1.3655
O31        O    0.4999921322    0.0497027541    0.5867377131         -1.2517
O32        O    0.5000006935    0.0497089680    0.4132571696         -1.3358
O33        O    0.5000015528    0.9502972689    0.4132559420         -1.3313
O34        O    0.4999993110    0.9502912176    0.5867301629         -1.2439
O35        O    0.4132651561    0.9502931450    0.5000002045         -1.3689
O36        O    0.5867357119    0.9502951685    0.4999985433         -1.3567
Cu37      Cu    0.4999947712    0.0587777656    0.5000014740          1.0456
Cu38      Cu    0.5000052376    0.9412222469    0.4999985014          1.0433
C39        C    0.6123129901    0.0000000063    0.4999999880          0.3063
C40        C    0.3876870186    0.0000000063    0.4999999874          0.2977
C41        C    0.5000000046    0.0000000063    0.6123090610          0.2191
C42        C    0.5000000041    0.0000000063    0.3876909144          0.2819
O43        O    0.5497062576    0.9999997799    0.0867348333         -1.3557
O44        O    0.5497042341    0.0000014410    0.9132642776         -1.3655
O45        O    0.5497021442    0.0867387423    0.9999921129         -1.2517
O46        O    0.5497083580    0.9132561581    0.0000006743         -1.3358
O47        O    0.4502978283    0.9132549305    0.0000015335         -1.3313
O48        O    0.4502917771    0.0867311921    0.9999992917         -1.2439
O49        O    0.4502937045    0.0000002134    0.9132651368         -1.3689
O50        O    0.4502957279    0.9999985523    0.0867356926         -1.3567
Cu51      Cu    0.5587770489    0.0000014830    0.9999947519          1.0456
Cu52      Cu    0.4412229131    0.9999985103    0.0000052183          1.0433
C53        C    0.4999999810    0.9999999969    0.1123129708          0.3063
C54        C    0.4999999810    0.9999999964    0.8876869993          0.2977
C55        C    0.4999999810    0.1123103910    0.9999999854          0.2191
C56        C    0.4999999810    0.8876896022    0.9999999848          0.2819
O57        O    0.0867348477    0.5497068382    0.9999997683         -1.3557
O58        O    0.9132642919    0.5497048148    0.0000014295         -1.3655
O59        O    0.9999921273    0.5497027248    0.0867377105         -1.2517
O60        O    0.0000006886    0.5497089387    0.9132571670         -1.3358
O61        O    0.0000015478    0.4502972396    0.9132559394         -1.3313
O62        O    0.9999993060    0.4502911883    0.0867301603         -1.2439
O63        O    0.9132651511    0.4502931157    0.0000002019         -1.3689
O64        O    0.0867357069    0.4502951392    0.9999985407         -1.3567
Cu65      Cu    0.9999947662    0.5587777363    0.0000014714          1.0456
Cu66      Cu    0.0000052326    0.4412222176    0.9999984988          1.0433
C67        C    0.1123129852    0.4999999770    0.9999999854          0.3063
C68        C    0.8876870136    0.4999999770    0.9999999848          0.2977
C69        C    0.9999999997    0.4999999770    0.1123090584          0.2191
C70        C    0.9999999991    0.4999999770    0.8876909118          0.2819
O71        O    0.4132651549    0.5000002128    0.9502937105         -1.3557
O72        O    0.5867357107    0.4999985517    0.9502957340         -1.3655
O73        O    0.5000078753    0.4132612504    0.9502978239         -1.2517
O74        O    0.4999993140    0.5867438345    0.9502916101         -1.3358
O75        O    0.4999984547    0.5867450622    0.0497021397         -1.3313
O76        O    0.5000006966    0.4132688006    0.0497081910         -1.2439
O77        O    0.5867348514    0.4999997793    0.0497062636         -1.3689
O78        O    0.4132642956    0.5000014404    0.0497042402         -1.3567
Cu79      Cu    0.5000052364    0.4999985097    0.9412229191          1.0456
Cu80      Cu    0.4999947700    0.5000014824    0.0587770550          1.0433
C81        C    0.3876870174    0.4999999958    0.9999999871          0.3063
C82        C    0.6123129889    0.4999999963    0.9999999871          0.2977
C83        C    0.5000000029    0.3876896016    0.9999999871          0.2191
C84        C    0.5000000034    0.6123103905    0.9999999871          0.2819
C195       C    0.7155788458    0.5036905932    0.9404937708          0.3708
C196       C    0.6811556000    0.4999999915    0.9999999865          0.3708
C197       C    0.7155767555    0.4963093850    0.0595062017          0.3708
C198       C    0.7844211568    0.4963093801    0.0595062011          0.3708
C199       C    0.8188444026    0.4999999818    0.9999999854          0.3708
C200       C    0.7844232471    0.5036905883    0.9404937702          0.3708
H201       H    0.6900982501    0.5064226006    0.8964437154          0.3708
H202       H    0.6900978806    0.4935774979    0.1035543742          0.3708
H203       H    0.8099017524    0.4935773727    0.1035562565          0.3708
H204       H    0.8099021220    0.5064224754    0.8964455977          0.3708
C185       C    0.2155783363    0.5595050956    0.0037190127          0.3708
C186       C    0.1811556000    0.4999999817    0.9999999858          0.3708
C187       C    0.2155772650    0.4404948724    0.9962809593          0.3708
C188       C    0.2844216663    0.4404948771    0.9962809597          0.3708
C189       C    0.3188444026    0.4999999911    0.9999999866          0.3708
C190       C    0.2844227376    0.5595051004    0.0037190131          0.3708
H191       H    0.1900973635    0.6035543324    0.0064720583          0.3708
H192       H    0.1900987673    0.3964475154    0.9935280311          0.3708
H193       H    0.3099026391    0.3964456404    0.9935279141          0.3708
H194       H    0.3099012353    0.6035524574    0.0064719414          0.3708
C175       C    0.4403802153    0.7155784462    0.0003000888          0.3708
C176       C    0.4999999978    0.6811547852    0.9999999865          0.3708
C177       C    0.5596197748    0.7155763354    0.9996998836          0.3708
C178       C    0.5596197692    0.7844215465    0.9996998831          0.3708
C179       C    0.4999999866    0.8188452075    0.9999999854          0.3708
C180       C    0.4403802097    0.7844236573    0.0003000883          0.3708
H181       H    0.3962460947    0.6900975584    0.0005222429          0.3708
H182       H    0.6037520127    0.6900971532    0.9994777394          0.3708
H183       H    0.6037538898    0.8099024343    0.9994777290          0.3708
H184       H    0.3962479717    0.8099028395    0.0005222325          0.3708
C165       C    0.4999835758    0.2155784528    0.9403794546          0.3708
C166       C    0.4999999865    0.1811547852    0.9999999858          0.3708
C167       C    0.5000164026    0.2155763288    0.0596205174          0.3708
C168       C    0.5000164081    0.2844215399    0.0596205179          0.3708
C169       C    0.4999999974    0.3188452075    0.9999999866          0.3708
C170       C    0.4999835813    0.2844236639    0.9403794550          0.3708
H171       H    0.4999714236    0.1900975698    0.8962447753          0.3708
H172       H    0.5000285502    0.1900971417    0.1037533096          0.3708
H173       H    0.5000285603    0.3099024228    0.1037551971          0.3708
H174       H    0.4999714337    0.3099028509    0.8962466628          0.3708
C155       C    0.4414891009    0.9885509578    0.7155769295          0.3708
C156       C    0.4999999987    0.0000000038    0.6811536289          0.3708
C157       C    0.5585108906    0.0114490473    0.7155747295          0.3708
C158       C    0.5585108847    0.0114490448    0.7844191308          0.3708
C159       C    0.4999999869    0.9999999988    0.8188424315          0.3708
C160       C    0.4414890950    0.9885509553    0.7844213308          0.3708
H161       H    0.3981758433    0.9800756918    0.6900963745          0.3708
H162       H    0.6018223009    0.0199239528    0.6900958140          0.3708
H163       H    0.6018241423    0.0199243108    0.8098996858          0.3708
H164       H    0.3981776847    0.9800760498    0.8099002463          0.3708
C145       C    0.5329778658    0.9503296890    0.2844234048          0.3708
C146       C    0.4999999983    0.0000000039    0.3188463439          0.3708
C147       C    0.4670221251    0.0496703165    0.2844248817          0.3708
C148       C    0.4670221193    0.0496703142    0.2155804804          0.3708
C149       C    0.4999999868    0.9999999992    0.1811575413          0.3708
C150       C    0.5329778600    0.9503296866    0.2155790035          0.3708
H151       H    0.5573900577    0.9135607563    0.3099042275          0.3708
H152       H    0.4426109812    0.0864376790    0.3099035296          0.3708
H153       H    0.4426099275    0.0864392469    0.1900996578          0.3708
H154       H    0.5573890040    0.9135623241    0.1901003557          0.3708
C135       C    0.9823285851    0.4430579461    0.7155808613          0.3708
C136       C    0.0000000047    0.4999999966    0.6811575413          0.3708
C137       C    0.0176714225    0.5569420405    0.7155786226          0.3708
C138       C    0.0176714207    0.5569420340    0.7844230239          0.3708
C139       C    0.0000000010    0.4999999835    0.8188463439          0.3708
C140       C    0.9823285832    0.4430579396    0.7844252626          0.3708
H141       H    0.9692471460    0.4009060435    0.6901003206          0.3708
H142       H    0.0307523038    0.5990921459    0.6900996929          0.3708
H143       H    0.0307528598    0.5990939366    0.8099035647          0.3708
H144       H    0.9692477020    0.4009078341    0.8099041924          0.3708
C125       C    0.9750833076    0.5541649888    0.2844192939          0.3708
C126       C    0.0000000049    0.4999999962    0.3188424315          0.3708
C127       C    0.0249167004    0.4458349972    0.2844211677          0.3708
C128       C    0.0249166987    0.4458349907    0.2155767664          0.3708
C129       C    0.0000000014    0.4999999834    0.1811536289          0.3708
C130       C    0.9750833059    0.5541649824    0.2155748926          0.3708
H131       H    0.9566384810    0.5942611569    0.3098999696          0.3708
H132       H    0.0433607397    0.4057405479    0.3098999625          0.3708
H133       H    0.0433615253    0.4057388226    0.1900960907          0.3708
H134       H    0.9566392665    0.5942594316    0.1900960978          0.3708
C115       C    0.2155783111    0.0584633838    0.5116925439          0.3708
C116       C    0.1811556009    0.0000000018    0.4999999969          0.3708
C117       C    0.2155772920    0.9415366212    0.4883074466          0.3708
C118       C    0.2844216933    0.9415366227    0.4883074435          0.3708
C119       C    0.3188444035    0.0000000048    0.4999999906          0.3708
C120       C    0.2844227124    0.0584633853    0.5116925408          0.3708
H121       H    0.1900973190    0.1017414708    0.5203480681          0.3708
H122       H    0.1900988136    0.8982603834    0.4796522948          0.3708
H123       H    0.3099026854    0.8982585358    0.4796519193          0.3708
H124       H    0.3099011908    0.1017396232    0.5203476926          0.3708
C105       C    0.7844210549    0.0533267428    0.5266631088          0.3708
C106       C    0.8188444035    0.0000000014    0.4999999970          0.3708
C107       C    0.7844233508    0.9466732616    0.4733368822          0.3708
C108       C    0.7155789495    0.9466732632    0.4733368792          0.3708
C109       C    0.6811556009    0.0000000046    0.4999999910          0.3708
C110       C    0.7155766536    0.0533267444    0.5266631057          0.3708
H111       H    0.8099015744    0.0928023813    0.5464007392          0.3708
H112       H    0.8099023018    0.9071993095    0.4536000978          0.3708
H113       H    0.6900984300    0.9071976247    0.4535992488          0.3708
H114       H    0.6900977026    0.0928006965    0.5463998901          0.3684
C95        C    0.9997758850    0.7844220555    0.4403798839          0.3708
C96        C    0.0000000015    0.8188452126    0.4999999970          0.3708
C97        C    0.0002241196    0.7844231585    0.5596201071          0.3708
C98        C    0.0002241213    0.7155779474    0.5596201041          0.3708
C99        C    0.0000000049    0.6811547903    0.4999999910          0.3708
C100       C    0.9997758868    0.7155768444    0.4403798809          0.3708
H101       H    0.9996099794    0.8099033163    0.3962455167          0.3708
H102       H    0.0003900169    0.8099019676    0.6037525897          0.3708
H103       H    0.0003900270    0.6900966865    0.6037544713          0.3708
H104       H    0.9996099895    0.6900980352    0.3962473983          0.3708
C85        C    0.9999269828    0.2155779539    0.5596204847          0.3708
C86        C    0.0000000019    0.1811547903    0.4999999969          0.3708
C87        C    0.0000730225    0.2155768378    0.4403795059          0.3708
C88        C    0.0000730241    0.2844220489    0.4403795028          0.3708
C89        C    0.0000000050    0.3188452126    0.4999999906          0.3708
C90        C    0.9999269844    0.2844231651    0.5596204815          0.3708
H91        H    0.9998729286    0.1900966980    0.6037551338          0.3708
H92        H    0.0001270732    0.1900980238    0.3962467459          0.3708
H93        H    0.0001270783    0.3099033048    0.3962448537          0.3708
H94        H    0.9998729337    0.3099019791    0.6037532415          0.3708
loop_
_geom_bond_atom_site_label_1
_geom_bond_atom_site_label_2
_geom_bond_distance
_geom_bond_site_symmetry_2
_ccdc_geom_bond_type
O1          Cu9 1.951       .   S
O1          C11 1.250       .   A
O2          Cu9 1.951       .   S
O2          C12 1.250       .   A
O3          Cu9 1.951       .   S
O3          C13 1.250       .   A
O4          Cu9 1.951       .   S
O4          C14 1.250       .   A
O5         Cu10 1.951       .   S
O5          C14 1.250       .   A
O6         Cu10 1.951       .   S
O6          C13 1.251       .   A
O7         Cu10 1.951       .   S
O7          C12 1.250       .   A
O8         Cu10 1.951       .   S
O8          C11 1.250       .   A
Cu9        Cu10 2.630       .   S
C11        C116 1.540       .   S
C12        C106 1.540       .   S
C13         C86 1.540       .   S
C14         C96 1.540       .   S
O15        Cu23 1.951       .   S
O15         C25 1.250       .   A
O16        Cu23 1.951       .   S
O16         C26 1.250       .   A
O17        Cu23 1.951       .   S
O17         C27 1.250       .   A
O18        Cu23 1.951       .   S
O18         C28 1.250       .   A
O19        Cu24 1.951       .   S
O19         C28 1.250       .   A
O20        Cu24 1.951       .   S
O20         C27 1.251       .   A
O21        Cu24 1.951       .   S
O21         C26 1.250       .   A
O22        Cu24 1.951       .   S
O22         C25 1.250       .   A
Cu23       Cu24 2.630       .   S
C25        C126 1.540       .   S
C26        C136 1.540       .   S
C27         C89 1.540       .   S
C28         C99 1.540   1_565   S
O29        Cu37 1.951       .   S
O29         C39 1.250       .   A
O30        Cu37 1.951       .   S
O30         C40 1.250       .   A
O31        Cu37 1.951       .   S
O31         C41 1.250       .   A
O32        Cu37 1.951       .   S
O32         C42 1.250       .   A
O33        Cu38 1.951       .   S
O33         C42 1.250       .   A
O34        Cu38 1.951       .   S
O34         C41 1.251       .   A
O35        Cu38 1.951       .   S
O35         C40 1.250       .   A
O36        Cu38 1.951       .   S
O36         C39 1.250       .   A
Cu37       Cu38 2.630       .   S
C39        C109 1.540   1_655   S
C40        C119 1.540       .   S
C41        C156 1.540       .   S
C42        C146 1.540       .   S
O43        Cu51 1.951       .   S
O43         C53 1.250       .   A
O44        Cu51 1.951       .   S
O44         C54 1.250       .   A
O45        Cu51 1.951       .   S
O45         C55 1.250       .   A
O46        Cu51 1.951       .   S
O46         C56 1.250       .   A
O47        Cu52 1.951       .   S
O47         C56 1.250       .   A
O48        Cu52 1.951       .   S
O48         C55 1.251       .   A
O49        Cu52 1.951       .   S
O49         C54 1.250       .   A
O50        Cu52 1.951       .   S
O50         C53 1.250       .   A
Cu51       Cu52 2.630       .   S
C53        C149 1.540   1_566   S
C54        C159 1.540   1_565   S
C55        C166 1.540       .   S
C56        C179 1.540       .   S
O57        Cu65 1.951       .   S
O57         C67 1.250       .   A
O58        Cu65 1.951       .   S
O58         C68 1.250       .   A
O59        Cu65 1.951       .   S
O59         C69 1.250       .   A
O60        Cu65 1.951       .   S
O60         C70 1.250       .   A
O61        Cu66 1.951       .   S
O61         C70 1.250       .   A
O62        Cu66 1.951       .   S
O62         C69 1.251       .   A
O63        Cu66 1.951       .   S
O63         C68 1.250       .   A
O64        Cu66 1.951       .   S
O64         C67 1.250       .   A
Cu65       Cu66 2.630       .   S
C67        C186 1.540       .   S
C68        C199 1.540       .   S
C69        C129 1.540   1_656   S
C70        C139 1.540   1_655   S
O71        Cu79 1.951       .   S
O71         C81 1.250       .   A
O72        Cu79 1.951       .   S
O72         C82 1.250       .   A
O73        Cu79 1.951       .   S
O73         C83 1.250       .   A
O74        Cu79 1.951       .   S
O74         C84 1.250       .   A
O75        Cu80 1.951       .   S
O75         C84 1.250       .   A
O76        Cu80 1.951       .   S
O76         C83 1.251       .   A
O77        Cu80 1.951       .   S
O77         C82 1.250       .   A
O78        Cu80 1.951       .   S
O78         C81 1.250       .   A
Cu79       Cu80 2.630       .   S
C81        C189 1.540   1_455   S
C82        C196 1.540       .   S
C83        C169 1.540   1_545   S
C84        C176 1.540       .   S
C195       C196 1.540       .   A
C195       C200 1.540       .   A
C195       H201 1.140       .   S
C196       C197 1.540       .   A
C197       C198 1.540       .   A
C197       H202 1.140       .   S
C198       C199 1.540       .   A
C198       H203 1.140       .   S
C199       C200 1.540       .   A
C200       H204 1.140       .   S
C185       C186 1.540       .   A
C185       C190 1.540       .   A
C185       H191 1.140       .   S
C186       C187 1.540       .   A
C187       C188 1.540       .   A
C187       H192 1.140       .   S
C188       C189 1.540       .   A
C188       H193 1.140       .   S
C189       C190 1.540       .   A
C190       H194 1.140       .   S
C175       C176 1.540       .   A
C175       C180 1.540       .   A
C175       H181 1.140       .   S
C176       C177 1.540       .   A
C177       C178 1.540       .   A
C177       H182 1.140       .   S
C178       C179 1.540       .   A
C178       H183 1.140       .   S
C179       C180 1.540       .   A
C180       H184 1.140       .   S
C165       C166 1.540       .   A
C165       C170 1.540       .   A
C165       H171 1.140       .   S
C166       C167 1.540       .   A
C167       C168 1.540       .   A
C167       H172 1.140       .   S
C168       C169 1.540       .   A
C168       H173 1.140       .   S
C169       C170 1.540       .   A
C170       H174 1.140       .   S
C155       C156 1.540       .   A
C155       C160 1.540       .   A
C155       H161 1.140       .   S
C156       C157 1.540       .   A
C157       C158 1.540       .   A
C157       H162 1.140       .   S
C158       C159 1.540       .   A
C158       H163 1.140       .   S
C159       C160 1.540       .   A
C160       H164 1.140       .   S
C145       C146 1.540       .   A
C145       C150 1.540       .   A
C145       H151 1.140       .   S
C146       C147 1.540       .   A
C147       C148 1.540       .   A
C147       H152 1.140       .   S
C148       C149 1.540       .   A
C148       H153 1.140       .   S
C149       C150 1.540       .   A
C150       H154 1.140       .   S
C135       C136 1.540       .   A
C135       C140 1.540       .   A
C135       H141 1.140       .   S
C136       C137 1.540       .   A
C137       C138 1.540       .   A
C137       H142 1.140       .   S
C138       C139 1.540       .   A
C138       H143 1.140       .   S
C139       C140 1.540       .   A
C140       H144 1.140       .   S
C125       C126 1.540       .   A
C125       C130 1.540       .   A
C125       H131 1.140       .   S
C126       C127 1.540       .   A
C127       C128 1.540       .   A
C127       H132 1.140       .   S
C128       C129 1.540       .   A
C128       H133 1.140       .   S
C129       C130 1.540       .   A
C130       H134 1.140       .   S
C115       C116 1.540       .   A
C115       C120 1.540       .   A
C115       H121 1.140       .   S
C116       C117 1.540       .   A
C117       C118 1.540       .   A
C117       H122 1.140       .   S
C118       C119 1.540       .   A
C118       H123 1.140       .   S
C119       C120 1.540       .   A
C120       H124 1.140       .   S
C105       C106 1.540       .   A
C105       C110 1.540       .   A
C105       H111 1.140       .   S
C106       C107 1.540       .   A
C107       C108 1.540       .   A
C107       H112 1.140       .   S
C108       C109 1.540       .   A
C108       H113 1.140       .   S
C109       C110 1.540       .   A
C110       H114 1.140       .   S
C95         C96 1.540       .   A
C95        C100 1.540       .   A
C95        H101 1.140       .   S
C96         C97 1.540       .   A
C97         C98 1.540       .   A
C97        H102 1.140       .   S
C98         C99 1.540       .   A
C98        H103 1.140       .   S
C99        C100 1.540       .   A
C100       H104 1.140       .   S
C85         C86 1.540       .   A
C85         C90 1.540       .   A
C85         H91 1.140       .   S
C86         C87 1.540       .   A
C87         C88 1.540       .   A
C87         H92 1.140       .   S
C88         C89 1.540       .   A
C88         H93 1.140       .   S
C89         C90 1.540       .   A
C90         H94 1.140       .   S
